/*---------------------------------------------------------------------------*\
| =========                 |                                                 |
| \\      /  F ield         | OpenFOAM: The Open Source CFD Toolbox           |
|  \\    /   O peration     | Version:  2.4.x                                 |
|   \\  /    A nd           | Web:      www.OpenFOAM.org                      |
|    \\/     M anipulation  |                                                 |
\*---------------------------------------------------------------------------*/
Build  : 2.4.x-51457432eeff
Exec   : fireFoam
Date   : Sep 16 2015
Time   : 16:23:20
Host   : "master"
PID    : 22996
Case   : /fmhome/meredithk/fireFoam-2.4.x/fireFoam/cases/uniformSamplingSprinklerInjection
nProcs : 1
sigFpe : Enabling floating point exception trapping (FOAM_SIGFPE).
fileModificationChecking : Monitoring run-time modified files using timeStampMaster
allowSystemOperations : Allowing user-supplied system call operations

// * * * * * * * * * * * * * * * * * * * * * * * * * * * * * * * * * * * * * //
FireFOAM Build Version:  c204c2a2b72341b63e06bb3c2c65709ff1fca287
FireFOAM Build Time Stamp:  Tue Sep 15 17:18:48 EDT 2015
****************************************************
Create time

Create mesh for time = 0


Reading g
Creating combustion model

Selecting combustion model eddyDissipationModel<psiThermoCombustion,gasHThermoPhysics>
Selecting thermodynamics package 
{
    type            hePsiThermo;
    mixture         singleStepReactingMixture;
    transport       sutherland;
    thermo          janaf;
    energy          sensibleEnthalpy;
    equationOfState perfectGas;
    specie          specie;
}

Selecting chemistryReader foamChemistryReader
Fuel heat of combustion :5.00312e+07
stoichiometric air-fuel ratio :17.1204
stoichiometric oxygen-fuel ratio :3.98918
Maximum products mass concentrations:
    H2O: 0.123944
    CO2: 0.151392
    N2: 0.724664
Combustion mode: explicit
Reading thermophysical properties

Creating component thermo properties:
    multi-component carrier - 5 species
    liquids - 1 components
    solids - 0 components
Creating field rho


Reading field U

Reading/calculating face flux field phi

Creating turbulence model

Selecting turbulence model type LESModel
Selecting LES turbulence model oneEqEddy
Selecting LES delta type cubeRootVol
oneEqEddyCoeffs
{
    ce              1.048;
    Prt             1;
    ck              0.094;
}

Creating field dpdt

stoichiometric mixture fraction is = 0.0551866
Creating field kinetic energy K

Calculating field g.h

No finite volume options present


Constructing reacting cloud
Constructing particle forces
    Selecting particle force sphereDrag
    Selecting particle force gravity
Constructing cloud functions
    Selecting cloud function facePostProcessing of type facePostProcessing
        sampleFaces1 faces: 400
        sampleFaces2 faces: 400
    Selecting cloud function particleCollectorFmg of type particleCollectorFmg
Constructing particle injection models
Creating injector: uniformSamplingSprinklerInjection
Selecting injection model uniformSamplingSprinklerInjection
    Constructing 3-D injection
centralCoreAngle: 90
Reading sprinkler injection lookup table data
tableDirectory_: table_K200_120gpm
radius 0.254
idealFlowRate 7.59584 L/s 
factor: 668766
orificeDiameter: 0.0180439
uJet: 29.7048
We: 218702
dv50: 0.00056905
Selecting dispersion model none
Selecting patch interaction model standardWallInteraction
Selecting stochastic collision model none
Selecting surface film model none
Selecting U integration scheme Euler
Selecting heat transfer model none
Selecting T integration scheme analytical
Selecting composition model singlePhaseMixture
Selecting phase change model none

Constructing surface film model
Selecting surfaceFilmModel none
    Selecting region model functions
    none
Creating pyrolysis model collection
Selecting pyrolysisModel none
Selecting radiationModel none
Courant Number mean: 0 max: 0

PIMPLE: Operating solver in PISO mode


Starting time loop

partialWrite partialWrite:
    dumping every 1 th outputTime : 

 d active U positions agefieldAverage fieldAverage1:
    Starting averaging at time 0

Courant Number mean: 0 max: 0
Time = 0.02


Solving 3-D cloud reactingCloud1

--> Cloud: reactingCloud1 injector: uniformSamplingSprinklerInjection
    Added 500 new parcels

Cloud: reactingCloud1
    Current number of parcels       = 500
    Current mass in system          = 0.151917
    Linear momentum                 = (-0.207861 -1.26322 -0.0674301)
   |Linear momentum|                = 1.28198
    Linear kinetic energy           = 20.5013
    uniformSamplingSprinklerInjection:
        number of parcels added     = 500
        mass introduced             = 0.151917
    Parcel fate (number, mass)
      - escape                      = 0, 0
      - stick                       = 0, 0
    Temperature min/max             = 300, 300
    Mass transfer phase change      = 0

diagonal:  Solving for rho, Initial residual = 0, Final residual = 0, No Iterations 0
PIMPLE: iteration 1
DILUPBiCG:  Solving for Ux, Initial residual = 1, Final residual = 2.68094e-10, No Iterations 1
DILUPBiCG:  Solving for Uy, Initial residual = 1, Final residual = 2.75756e-10, No Iterations 1
DILUPBiCG:  Solving for Uz, Initial residual = 1, Final residual = 2.68093e-10, No Iterations 1
DILUPBiCG:  Solving for O2, Initial residual = 0.00314523, Final residual = 1.19735e-12, No Iterations 1
DILUPBiCG:  Solving for H2O, Initial residual = 0, Final residual = 0, No Iterations 0
DILUPBiCG:  Solving for CH4, Initial residual = 0, Final residual = 0, No Iterations 0
DILUPBiCG:  Solving for CO2, Initial residual = 0, Final residual = 0, No Iterations 0
      O2	min/ave/max  =	     0.23301	     0.23301	     0.23301
     H2O	min/ave/max  =	           0	           0	           0
     CH4	min/ave/max  =	           0	           0	           0
     CO2	min/ave/max  =	           0	           0	           0
      N2	min/ave/max  =	     0.76699	     0.76699	     0.76699
DILUPBiCG:  Solving for h, Initial residual = 1, Final residual = 4.6022e-10, No Iterations 1
min/max(T) = 298.15, 298.15
GAMG:  Solving for p_rgh, Initial residual = 0.97457, Final residual = 0.0034942, No Iterations 1
diagonal:  Solving for rho, Initial residual = 0, Final residual = 0, No Iterations 0
time step continuity errors : sum local = 0.0031021, global = -0.0029771, cumulative = -0.0029771
GAMG:  Solving for p_rgh, Initial residual = 0.04499, Final residual = 8.8206e-08, No Iterations 11
diagonal:  Solving for rho, Initial residual = 0, Final residual = 0, No Iterations 0
time step continuity errors : sum local = 6.1168e-09, global = -5.7539e-09, cumulative = -0.0029771
DILUPBiCG:  Solving for k, Initial residual = 1, Final residual = 4.023e-09, No Iterations 2
ExecutionTime = 0.49 s  ClockTime = 1 s

Courant Number mean: 0.033167 max: 0.057586
Time = 0.04


Solving 3-D cloud reactingCloud1

--> Cloud: reactingCloud1 injector: uniformSamplingSprinklerInjection
    Added 500 new parcels

Cloud: reactingCloud1
    Current number of parcels       = 1000
    Current mass in system          = 0.30383
    Linear momentum                 = (-0.31491 -2.3556 -0.065694)
   |Linear momentum|                = 2.3775
    Linear kinetic energy           = 33.857
    uniformSamplingSprinklerInjection:
        number of parcels added     = 1000
        mass introduced             = 0.30383
    Parcel fate (number, mass)
      - escape                      = 0, 0
      - stick                       = 0, 0
    Temperature min/max             = 300, 300
    Mass transfer phase change      = 0

diagonal:  Solving for rho, Initial residual = 0, Final residual = 0, No Iterations 0
PIMPLE: iteration 1
DILUPBiCG:  Solving for Ux, Initial residual = 0.33167, Final residual = 1.5083e-09, No Iterations 2
DILUPBiCG:  Solving for Uy, Initial residual = 0.32649, Final residual = 1.5561e-09, No Iterations 2
DILUPBiCG:  Solving for Uz, Initial residual = 0.33168, Final residual = 1.5082e-09, No Iterations 2
DILUPBiCG:  Solving for O2, Initial residual = 0.0024049, Final residual = 2.785e-11, No Iterations 2
DILUPBiCG:  Solving for H2O, Initial residual = 0, Final residual = 0, No Iterations 0
DILUPBiCG:  Solving for CH4, Initial residual = 0, Final residual = 0, No Iterations 0
DILUPBiCG:  Solving for CO2, Initial residual = 0, Final residual = 0, No Iterations 0
      O2	min/ave/max  =	     0.23301	     0.23301	     0.23301
     H2O	min/ave/max  =	           0	           0	           0
     CH4	min/ave/max  =	           0	           0	           0
     CO2	min/ave/max  =	           0	           0	           0
      N2	min/ave/max  =	     0.76699	     0.76699	     0.76699
DILUPBiCG:  Solving for h, Initial residual = 1, Final residual = 3.7491e-09, No Iterations 2
min/max(T) = 298.08, 298.15
GAMG:  Solving for p_rgh, Initial residual = 0.20264, Final residual = 0.0011422, No Iterations 4
diagonal:  Solving for rho, Initial residual = 0, Final residual = 0, No Iterations 0
time step continuity errors : sum local = 0.00011842, global = 0.0001119, cumulative = -0.0028652
GAMG:  Solving for p_rgh, Initial residual = 0.018588, Final residual = 3.8597e-08, No Iterations 9
diagonal:  Solving for rho, Initial residual = 0, Final residual = 0, No Iterations 0
time step continuity errors : sum local = 1.1381e-07, global = -1.1381e-07, cumulative = -0.0028653
DILUPBiCG:  Solving for k, Initial residual = 0.099678, Final residual = 4.3948e-12, No Iterations 2
ExecutionTime = 0.64 s  ClockTime = 1 s

Courant Number mean: 0.0073114 max: 0.020583
Time = 0.06


Solving 3-D cloud reactingCloud1

--> Cloud: reactingCloud1 injector: uniformSamplingSprinklerInjection
    Added 500 new parcels

Cloud: reactingCloud1
    Current number of parcels       = 1500
    Current mass in system          = 0.45575
    Linear momentum                 = (-0.19508 -3.1633 0.015448)
   |Linear momentum|                = 3.1693
    Linear kinetic energy           = 43.268
    uniformSamplingSprinklerInjection:
        number of parcels added     = 1500
        mass introduced             = 0.45575
    Parcel fate (number, mass)
      - escape                      = 0, 0
      - stick                       = 0, 0
    Temperature min/max             = 300, 300
    Mass transfer phase change      = 0

diagonal:  Solving for rho, Initial residual = 0, Final residual = 0, No Iterations 0
PIMPLE: iteration 1
DILUPBiCG:  Solving for Ux, Initial residual = 0.88808, Final residual = 1.6308e-11, No Iterations 2
DILUPBiCG:  Solving for Uy, Initial residual = 0.87767, Final residual = 2.3132e-11, No Iterations 2
DILUPBiCG:  Solving for Uz, Initial residual = 0.88855, Final residual = 1.6301e-11, No Iterations 2
DILUPBiCG:  Solving for O2, Initial residual = 0.0024429, Final residual = 1.8519e-13, No Iterations 2
DILUPBiCG:  Solving for H2O, Initial residual = 0, Final residual = 0, No Iterations 0
DILUPBiCG:  Solving for CH4, Initial residual = 0, Final residual = 0, No Iterations 0
DILUPBiCG:  Solving for CO2, Initial residual = 0, Final residual = 0, No Iterations 0
      O2	min/ave/max  =	     0.23301	     0.23301	     0.23301
     H2O	min/ave/max  =	           0	           0	           0
     CH4	min/ave/max  =	           0	           0	           0
     CO2	min/ave/max  =	           0	           0	           0
      N2	min/ave/max  =	     0.76699	     0.76699	     0.76699
DILUPBiCG:  Solving for h, Initial residual = 0.87231, Final residual = 2.0926e-11, No Iterations 2
min/max(T) = 298.14, 298.35
GAMG:  Solving for p_rgh, Initial residual = 0.10508, Final residual = 0.0004075, No Iterations 4
diagonal:  Solving for rho, Initial residual = 0, Final residual = 0, No Iterations 0
time step continuity errors : sum local = 3.2428e-05, global = -3.0578e-05, cumulative = -0.0028959
GAMG:  Solving for p_rgh, Initial residual = 0.035029, Final residual = 9.501e-08, No Iterations 9
diagonal:  Solving for rho, Initial residual = 0, Final residual = 0, No Iterations 0
time step continuity errors : sum local = 8.6191e-09, global = 8.3902e-09, cumulative = -0.0028958
DILUPBiCG:  Solving for k, Initial residual = 0.017796, Final residual = 1.1605e-13, No Iterations 2
ExecutionTime = 0.8 s  ClockTime = 1 s

Courant Number mean: 0.0033122 max: 0.016205
Time = 0.08


Solving 3-D cloud reactingCloud1

--> Cloud: reactingCloud1 injector: uniformSamplingSprinklerInjection
    Added 500 new parcels

Cloud: reactingCloud1
    Current number of parcels       = 2000
    Current mass in system          = 0.60767
    Linear momentum                 = (-0.18421 -3.9265 0.00039303)
   |Linear momentum|                = 3.9308
    Linear kinetic energy           = 50.318
    uniformSamplingSprinklerInjection:
        number of parcels added     = 2000
        mass introduced             = 0.60767
    Parcel fate (number, mass)
      - escape                      = 0, 0
      - stick                       = 0, 0
    Temperature min/max             = 300, 300
    Mass transfer phase change      = 0

diagonal:  Solving for rho, Initial residual = 0, Final residual = 0, No Iterations 0
PIMPLE: iteration 1
DILUPBiCG:  Solving for Ux, Initial residual = 0.7176, Final residual = 7.3004e-13, No Iterations 2
DILUPBiCG:  Solving for Uy, Initial residual = 0.55994, Final residual = 2.6475e-12, No Iterations 2
DILUPBiCG:  Solving for Uz, Initial residual = 0.7181, Final residual = 7.254e-13, No Iterations 2
DILUPBiCG:  Solving for O2, Initial residual = 0.0024111, Final residual = 1.7352e-14, No Iterations 2
DILUPBiCG:  Solving for H2O, Initial residual = 0, Final residual = 0, No Iterations 0
DILUPBiCG:  Solving for CH4, Initial residual = 0, Final residual = 0, No Iterations 0
DILUPBiCG:  Solving for CO2, Initial residual = 0, Final residual = 0, No Iterations 0
      O2	min/ave/max  =	     0.23301	     0.23301	     0.23301
     H2O	min/ave/max  =	           0	           0	           0
     CH4	min/ave/max  =	           0	           0	           0
     CO2	min/ave/max  =	           0	           0	           0
      N2	min/ave/max  =	     0.76699	     0.76699	     0.76699
DILUPBiCG:  Solving for h, Initial residual = 0.27452, Final residual = 3.8518e-13, No Iterations 2
min/max(T) = 298.15, 298.29
GAMG:  Solving for p_rgh, Initial residual = 0.13427, Final residual = 0.00078981, No Iterations 4
diagonal:  Solving for rho, Initial residual = 0, Final residual = 0, No Iterations 0
time step continuity errors : sum local = 2.7717e-05, global = -2.6206e-05, cumulative = -0.0029221
GAMG:  Solving for p_rgh, Initial residual = 0.018209, Final residual = 6.2245e-08, No Iterations 10
diagonal:  Solving for rho, Initial residual = 0, Final residual = 0, No Iterations 0
time step continuity errors : sum local = 8.5535e-09, global = 7.784e-09, cumulative = -0.002922
DILUPBiCG:  Solving for k, Initial residual = 0.0089864, Final residual = 3.726e-14, No Iterations 2
ExecutionTime = 0.96 s  ClockTime = 1 s

Courant Number mean: 0.0014323 max: 0.010585
Time = 0.1


Solving 3-D cloud reactingCloud1

--> Cloud: reactingCloud1 injector: uniformSamplingSprinklerInjection
    Added 500 new parcels

Cloud: reactingCloud1
    Current number of parcels       = 2500
    Current mass in system          = 0.75958
    Linear momentum                 = (-0.12026 -4.6481 0.094992)
   |Linear momentum|                = 4.6507
    Linear kinetic energy           = 56.222
    uniformSamplingSprinklerInjection:
        number of parcels added     = 2500
        mass introduced             = 0.75958
    Parcel fate (number, mass)
      - escape                      = 0, 0
      - stick                       = 0, 0
    Temperature min/max             = 300, 300
    Mass transfer phase change      = 0

diagonal:  Solving for rho, Initial residual = 0, Final residual = 0, No Iterations 0
PIMPLE: iteration 1
DILUPBiCG:  Solving for Ux, Initial residual = 0.46105, Final residual = 3.6519e-13, No Iterations 2
DILUPBiCG:  Solving for Uy, Initial residual = 0.3608, Final residual = 2.542e-13, No Iterations 2
DILUPBiCG:  Solving for Uz, Initial residual = 0.46233, Final residual = 3.3754e-13, No Iterations 2
DILUPBiCG:  Solving for O2, Initial residual = 0.002436, Final residual = 1.1394e-15, No Iterations 2
DILUPBiCG:  Solving for H2O, Initial residual = 0, Final residual = 0, No Iterations 0
DILUPBiCG:  Solving for CH4, Initial residual = 0, Final residual = 0, No Iterations 0
DILUPBiCG:  Solving for CO2, Initial residual = 0, Final residual = 0, No Iterations 0
      O2	min/ave/max  =	     0.23301	     0.23301	     0.23301
     H2O	min/ave/max  =	           0	           0	           0
     CH4	min/ave/max  =	           0	           0	           0
     CO2	min/ave/max  =	           0	           0	           0
      N2	min/ave/max  =	     0.76699	     0.76699	     0.76699
DILUPBiCG:  Solving for h, Initial residual = 0.36224, Final residual = 1.5927e-13, No Iterations 2
min/max(T) = 298.15, 298.23
GAMG:  Solving for p_rgh, Initial residual = 0.19149, Final residual = 0.0009553, No Iterations 4
diagonal:  Solving for rho, Initial residual = 0, Final residual = 0, No Iterations 0
time step continuity errors : sum local = 4.4994e-06, global = -4.6743e-07, cumulative = -0.0029225
GAMG:  Solving for p_rgh, Initial residual = 0.016766, Final residual = 5.3874e-08, No Iterations 9
diagonal:  Solving for rho, Initial residual = 0, Final residual = 0, No Iterations 0
time step continuity errors : sum local = 7.5765e-10, global = -1.8515e-10, cumulative = -0.0029225
DILUPBiCG:  Solving for k, Initial residual = 0.0062529, Final residual = 2.1696e-14, No Iterations 2
ExecutionTime = 1.09 s  ClockTime = 1 s

Courant Number mean: 0.0011537 max: 0.016537
Time = 0.12


Solving 3-D cloud reactingCloud1

--> Cloud: reactingCloud1 injector: uniformSamplingSprinklerInjection
    Added 500 new parcels

Cloud: reactingCloud1
    Current number of parcels       = 3000
    Current mass in system          = 0.9115
    Linear momentum                 = (-0.11463 -5.2861 0.07745)
   |Linear momentum|                = 5.2879
    Linear kinetic energy           = 60.233
    uniformSamplingSprinklerInjection:
        number of parcels added     = 3000
        mass introduced             = 0.9115
    Parcel fate (number, mass)
      - escape                      = 0, 0
      - stick                       = 0, 0
    Temperature min/max             = 300, 300
    Mass transfer phase change      = 0

diagonal:  Solving for rho, Initial residual = 0, Final residual = 0, No Iterations 0
PIMPLE: iteration 1
DILUPBiCG:  Solving for Ux, Initial residual = 0.30863, Final residual = 5.2194e-08, No Iterations 1
DILUPBiCG:  Solving for Uy, Initial residual = 0.21766, Final residual = 7.4961e-08, No Iterations 1
DILUPBiCG:  Solving for Uz, Initial residual = 0.30816, Final residual = 4.3691e-08, No Iterations 1
DILUPBiCG:  Solving for O2, Initial residual = 0.0024494, Final residual = 6.8683e-09, No Iterations 1
DILUPBiCG:  Solving for H2O, Initial residual = 0, Final residual = 0, No Iterations 0
DILUPBiCG:  Solving for CH4, Initial residual = 0, Final residual = 0, No Iterations 0
DILUPBiCG:  Solving for CO2, Initial residual = 0, Final residual = 0, No Iterations 0
      O2	min/ave/max  =	     0.23301	     0.23301	     0.23301
     H2O	min/ave/max  =	           0	           0	           0
     CH4	min/ave/max  =	           0	           0	           0
     CO2	min/ave/max  =	           0	           0	           0
      N2	min/ave/max  =	     0.76699	     0.76699	     0.76699
DILUPBiCG:  Solving for h, Initial residual = 0.022624, Final residual = 9.0228e-09, No Iterations 1
min/max(T) = 298.15, 298.23
GAMG:  Solving for p_rgh, Initial residual = 0.14654, Final residual = 0.00062794, No Iterations 4
diagonal:  Solving for rho, Initial residual = 0, Final residual = 0, No Iterations 0
time step continuity errors : sum local = 2.8045e-06, global = 2.3389e-06, cumulative = -0.0029202
GAMG:  Solving for p_rgh, Initial residual = 0.058754, Final residual = 3.4379e-08, No Iterations 9
diagonal:  Solving for rho, Initial residual = 0, Final residual = 0, No Iterations 0
time step continuity errors : sum local = 6.3557e-10, global = -6.1315e-10, cumulative = -0.0029202
DILUPBiCG:  Solving for k, Initial residual = 0.0057253, Final residual = 3.2134e-13, No Iterations 2
ExecutionTime = 1.22 s  ClockTime = 1 s

Courant Number mean: 0.001042 max: 0.020052
Time = 0.14


Solving 3-D cloud reactingCloud1

--> Cloud: reactingCloud1 injector: uniformSamplingSprinklerInjection
    Added 500 new parcels

Cloud: reactingCloud1
    Current number of parcels       = 3500
    Current mass in system          = 1.0634
    Linear momentum                 = (-0.099066 -5.8769 0.034401)
   |Linear momentum|                = 5.8779
    Linear kinetic energy           = 64.101
    uniformSamplingSprinklerInjection:
        number of parcels added     = 3500
        mass introduced             = 1.0634
    Parcel fate (number, mass)
      - escape                      = 0, 0
      - stick                       = 0, 0
    Temperature min/max             = 300, 300
    Mass transfer phase change      = 0

diagonal:  Solving for rho, Initial residual = 0, Final residual = 0, No Iterations 0
PIMPLE: iteration 1
DILUPBiCG:  Solving for Ux, Initial residual = 0.14212, Final residual = 2.7139e-12, No Iterations 2
DILUPBiCG:  Solving for Uy, Initial residual = 0.094618, Final residual = 6.4731e-08, No Iterations 1
DILUPBiCG:  Solving for Uz, Initial residual = 0.14187, Final residual = 1.7737e-12, No Iterations 2
DILUPBiCG:  Solving for O2, Initial residual = 0.0024717, Final residual = 8.8473e-14, No Iterations 2
DILUPBiCG:  Solving for H2O, Initial residual = 0, Final residual = 0, No Iterations 0
DILUPBiCG:  Solving for CH4, Initial residual = 0, Final residual = 0, No Iterations 0
DILUPBiCG:  Solving for CO2, Initial residual = 0, Final residual = 0, No Iterations 0
      O2	min/ave/max  =	     0.23301	     0.23301	     0.23301
     H2O	min/ave/max  =	           0	           0	           0
     CH4	min/ave/max  =	           0	           0	           0
     CO2	min/ave/max  =	           0	           0	           0
      N2	min/ave/max  =	     0.76699	     0.76699	     0.76699
DILUPBiCG:  Solving for h, Initial residual = 0.057547, Final residual = 7.8397e-09, No Iterations 1
min/max(T) = 298.15, 298.24
GAMG:  Solving for p_rgh, Initial residual = 0.18191, Final residual = 0.00074566, No Iterations 3
diagonal:  Solving for rho, Initial residual = 0, Final residual = 0, No Iterations 0
time step continuity errors : sum local = 1.3705e-06, global = -8.5987e-07, cumulative = -0.002921
GAMG:  Solving for p_rgh, Initial residual = 0.057197, Final residual = 3.8169e-08, No Iterations 9
diagonal:  Solving for rho, Initial residual = 0, Final residual = 0, No Iterations 0
time step continuity errors : sum local = 5.4999e-10, global = 4.3778e-10, cumulative = -0.002921
DILUPBiCG:  Solving for k, Initial residual = 0.0059492, Final residual = 1.1997e-12, No Iterations 2
ExecutionTime = 1.35 s  ClockTime = 1 s

Courant Number mean: 0.00096393 max: 0.022581
Time = 0.16


Solving 3-D cloud reactingCloud1

--> Cloud: reactingCloud1 injector: uniformSamplingSprinklerInjection
    Added 500 new parcels

Cloud: reactingCloud1
    Current number of parcels       = 4000
    Current mass in system          = 1.2153
    Linear momentum                 = (-0.12334 -6.3984 0.0088417)
   |Linear momentum|                = 6.3996
    Linear kinetic energy           = 67.845
    uniformSamplingSprinklerInjection:
        number of parcels added     = 4000
        mass introduced             = 1.2153
    Parcel fate (number, mass)
      - escape                      = 0, 0
      - stick                       = 0, 0
    Temperature min/max             = 300, 300
    Mass transfer phase change      = 0

diagonal:  Solving for rho, Initial residual = 0, Final residual = 0, No Iterations 0
PIMPLE: iteration 1
DILUPBiCG:  Solving for Ux, Initial residual = 0.13598, Final residual = 5.803e-12, No Iterations 2
DILUPBiCG:  Solving for Uy, Initial residual = 0.077609, Final residual = 7.2037e-08, No Iterations 1
DILUPBiCG:  Solving for Uz, Initial residual = 0.13612, Final residual = 3.8392e-12, No Iterations 2
DILUPBiCG:  Solving for O2, Initial residual = 0.0024917, Final residual = 6.3494e-09, No Iterations 1
DILUPBiCG:  Solving for H2O, Initial residual = 0, Final residual = 0, No Iterations 0
DILUPBiCG:  Solving for CH4, Initial residual = 0, Final residual = 0, No Iterations 0
DILUPBiCG:  Solving for CO2, Initial residual = 0, Final residual = 0, No Iterations 0
      O2	min/ave/max  =	     0.23301	     0.23301	     0.23301
     H2O	min/ave/max  =	           0	           0	           0
     CH4	min/ave/max  =	           0	           0	           0
     CO2	min/ave/max  =	           0	           0	           0
      N2	min/ave/max  =	     0.76699	     0.76699	     0.76699
DILUPBiCG:  Solving for h, Initial residual = 0.0026693, Final residual = 9.474e-10, No Iterations 1
min/max(T) = 298.15, 298.24
GAMG:  Solving for p_rgh, Initial residual = 0.16234, Final residual = 0.0015841, No Iterations 3
diagonal:  Solving for rho, Initial residual = 0, Final residual = 0, No Iterations 0
time step continuity errors : sum local = 2.5086e-06, global = -2.3877e-06, cumulative = -0.0029234
GAMG:  Solving for p_rgh, Initial residual = 0.057265, Final residual = 7.9202e-08, No Iterations 9
diagonal:  Solving for rho, Initial residual = 0, Final residual = 0, No Iterations 0
time step continuity errors : sum local = 2.7993e-10, global = 5.3015e-11, cumulative = -0.0029234
DILUPBiCG:  Solving for k, Initial residual = 0.0068262, Final residual = 6.0577e-12, No Iterations 2
ExecutionTime = 1.48 s  ClockTime = 1 s

Courant Number mean: 0.00094757 max: 0.02529
Time = 0.18


Solving 3-D cloud reactingCloud1

--> Cloud: reactingCloud1 injector: uniformSamplingSprinklerInjection
    Added 500 new parcels

Cloud: reactingCloud1
    Current number of parcels       = 4500
    Current mass in system          = 1.3673
    Linear momentum                 = (-0.13217 -6.9605 -0.010282)
   |Linear momentum|                = 6.9617
    Linear kinetic energy           = 70.921
    uniformSamplingSprinklerInjection:
        number of parcels added     = 4500
        mass introduced             = 1.3673
    Parcel fate (number, mass)
      - escape                      = 0, 0
      - stick                       = 0, 0
    Temperature min/max             = 300, 300
    Mass transfer phase change      = 0

diagonal:  Solving for rho, Initial residual = 0, Final residual = 0, No Iterations 0
PIMPLE: iteration 1
DILUPBiCG:  Solving for Ux, Initial residual = 0.058567, Final residual = 8.0845e-12, No Iterations 2
DILUPBiCG:  Solving for Uy, Initial residual = 0.064804, Final residual = 8.3794e-08, No Iterations 1
DILUPBiCG:  Solving for Uz, Initial residual = 0.058011, Final residual = 5.3272e-12, No Iterations 2
DILUPBiCG:  Solving for O2, Initial residual = 0.0024813, Final residual = 7.0511e-09, No Iterations 1
DILUPBiCG:  Solving for H2O, Initial residual = 0, Final residual = 0, No Iterations 0
DILUPBiCG:  Solving for CH4, Initial residual = 0, Final residual = 0, No Iterations 0
DILUPBiCG:  Solving for CO2, Initial residual = 0, Final residual = 0, No Iterations 0
      O2	min/ave/max  =	     0.23301	     0.23301	     0.23301
     H2O	min/ave/max  =	           0	           0	           0
     CH4	min/ave/max  =	           0	           0	           0
     CO2	min/ave/max  =	           0	           0	           0
      N2	min/ave/max  =	     0.76699	     0.76699	     0.76699
DILUPBiCG:  Solving for h, Initial residual = 0.0094786, Final residual = 4.3569e-09, No Iterations 1
min/max(T) = 298.15, 298.24
GAMG:  Solving for p_rgh, Initial residual = 0.15919, Final residual = 0.00093752, No Iterations 3
diagonal:  Solving for rho, Initial residual = 0, Final residual = 0, No Iterations 0
time step continuity errors : sum local = 1.0475e-06, global = -9.2201e-07, cumulative = -0.0029243
GAMG:  Solving for p_rgh, Initial residual = 0.051287, Final residual = 3.6661e-08, No Iterations 10
diagonal:  Solving for rho, Initial residual = 0, Final residual = 0, No Iterations 0
time step continuity errors : sum local = 1.9451e-10, global = -4.0685e-11, cumulative = -0.0029243
DILUPBiCG:  Solving for k, Initial residual = 0.0082826, Final residual = 3.4283e-11, No Iterations 2
ExecutionTime = 1.61 s  ClockTime = 2 s

Courant Number mean: 0.00094932 max: 0.028053
Time = 0.2


Solving 3-D cloud reactingCloud1

--> Cloud: reactingCloud1 injector: uniformSamplingSprinklerInjection
    Added 500 new parcels

Cloud: reactingCloud1
    Current number of parcels       = 5000
    Current mass in system          = 1.5192
    Linear momentum                 = (-0.14138 -7.4205 -0.050158)
   |Linear momentum|                = 7.422
    Linear kinetic energy           = 73.494
    uniformSamplingSprinklerInjection:
        number of parcels added     = 5000
        mass introduced             = 1.5192
    Parcel fate (number, mass)
      - escape                      = 0, 0
      - stick                       = 0, 0
    Temperature min/max             = 300, 300
    Mass transfer phase change      = 0

diagonal:  Solving for rho, Initial residual = 0, Final residual = 0, No Iterations 0
PIMPLE: iteration 1
DILUPBiCG:  Solving for Ux, Initial residual = 0.045604, Final residual = 1.1646e-11, No Iterations 2
DILUPBiCG:  Solving for Uy, Initial residual = 0.053851, Final residual = 6.1045e-12, No Iterations 2
DILUPBiCG:  Solving for Uz, Initial residual = 0.045462, Final residual = 9.5351e-12, No Iterations 2
DILUPBiCG:  Solving for O2, Initial residual = 0.0024983, Final residual = 1.652e-13, No Iterations 2
DILUPBiCG:  Solving for H2O, Initial residual = 0, Final residual = 0, No Iterations 0
DILUPBiCG:  Solving for CH4, Initial residual = 0, Final residual = 0, No Iterations 0
DILUPBiCG:  Solving for CO2, Initial residual = 0, Final residual = 0, No Iterations 0
      O2	min/ave/max  =	     0.23301	     0.23301	     0.23301
     H2O	min/ave/max  =	           0	           0	           0
     CH4	min/ave/max  =	           0	           0	           0
     CO2	min/ave/max  =	           0	           0	           0
      N2	min/ave/max  =	     0.76699	     0.76699	     0.76699
DILUPBiCG:  Solving for h, Initial residual = 0.001388, Final residual = 2.8867e-09, No Iterations 1
min/max(T) = 298.15, 298.24
GAMG:  Solving for p_rgh, Initial residual = 0.13564, Final residual = 0.00081227, No Iterations 3
diagonal:  Solving for rho, Initial residual = 0, Final residual = 0, No Iterations 0
time step continuity errors : sum local = 8.0756e-07, global = 2.3035e-08, cumulative = -0.0029243
GAMG:  Solving for p_rgh, Initial residual = 0.037447, Final residual = 5.6992e-08, No Iterations 9
diagonal:  Solving for rho, Initial residual = 0, Final residual = 0, No Iterations 0
time step continuity errors : sum local = 1.323e-10, global = 8.8797e-12, cumulative = -0.0029243
DILUPBiCG:  Solving for k, Initial residual = 0.010464, Final residual = 1.3676e-10, No Iterations 2
ExecutionTime = 1.76 s  ClockTime = 2 s

Courant Number mean: 0.00095133 max: 0.031317
Time = 0.22


Solving 3-D cloud reactingCloud1

--> Cloud: reactingCloud1 injector: uniformSamplingSprinklerInjection
    Added 500 new parcels

Cloud: reactingCloud1
    Current number of parcels       = 5500
    Current mass in system          = 1.6711
    Linear momentum                 = (-0.039669 -7.8989 0.03688)
   |Linear momentum|                = 7.899
    Linear kinetic energy           = 74.938
    uniformSamplingSprinklerInjection:
        number of parcels added     = 5500
        mass introduced             = 1.6711
    Parcel fate (number, mass)
      - escape                      = 0, 0
      - stick                       = 0, 0
    Temperature min/max             = 300, 300
    Mass transfer phase change      = 0

diagonal:  Solving for rho, Initial residual = 0, Final residual = 0, No Iterations 0
PIMPLE: iteration 1
DILUPBiCG:  Solving for Ux, Initial residual = 0.044238, Final residual = 1.9434e-11, No Iterations 2
DILUPBiCG:  Solving for Uy, Initial residual = 0.046327, Final residual = 1.1125e-11, No Iterations 2
DILUPBiCG:  Solving for Uz, Initial residual = 0.044619, Final residual = 2.0916e-11, No Iterations 2
DILUPBiCG:  Solving for O2, Initial residual = 0.0024685, Final residual = 3.1909e-13, No Iterations 2
DILUPBiCG:  Solving for H2O, Initial residual = 0, Final residual = 0, No Iterations 0
DILUPBiCG:  Solving for CH4, Initial residual = 0, Final residual = 0, No Iterations 0
DILUPBiCG:  Solving for CO2, Initial residual = 0, Final residual = 0, No Iterations 0
      O2	min/ave/max  =	     0.23301	     0.23301	     0.23301
     H2O	min/ave/max  =	           0	           0	           0
     CH4	min/ave/max  =	           0	           0	           0
     CO2	min/ave/max  =	           0	           0	           0
      N2	min/ave/max  =	     0.76699	     0.76699	     0.76699
DILUPBiCG:  Solving for h, Initial residual = 0.0012701, Final residual = 2.3948e-09, No Iterations 1
min/max(T) = 298.15, 298.24
GAMG:  Solving for p_rgh, Initial residual = 0.1147, Final residual = 0.000511, No Iterations 3
diagonal:  Solving for rho, Initial residual = 0, Final residual = 0, No Iterations 0
time step continuity errors : sum local = 4.64e-07, global = -1.8888e-07, cumulative = -0.0029245
GAMG:  Solving for p_rgh, Initial residual = 0.034916, Final residual = 6.1825e-08, No Iterations 9
diagonal:  Solving for rho, Initial residual = 0, Final residual = 0, No Iterations 0
time step continuity errors : sum local = 1.105e-10, global = 1.4313e-12, cumulative = -0.0029245
DILUPBiCG:  Solving for k, Initial residual = 0.013504, Final residual = 6.1977e-10, No Iterations 2
ExecutionTime = 1.9 s  ClockTime = 2 s

Courant Number mean: 0.00096447 max: 0.033931
Time = 0.24


Solving 3-D cloud reactingCloud1

--> Cloud: reactingCloud1 injector: uniformSamplingSprinklerInjection
    Added 500 new parcels

Cloud: reactingCloud1
    Current number of parcels       = 6000
    Current mass in system          = 1.823
    Linear momentum                 = (0.12271 -8.4383 0.1217)
   |Linear momentum|                = 8.4401
    Linear kinetic energy           = 77.017
    uniformSamplingSprinklerInjection:
        number of parcels added     = 6000
        mass introduced             = 1.823
    Parcel fate (number, mass)
      - escape                      = 0, 0
      - stick                       = 0, 0
    Temperature min/max             = 300, 300
    Mass transfer phase change      = 0

diagonal:  Solving for rho, Initial residual = 0, Final residual = 0, No Iterations 0
PIMPLE: iteration 1
DILUPBiCG:  Solving for Ux, Initial residual = 0.041367, Final residual = 3.7978e-11, No Iterations 2
DILUPBiCG:  Solving for Uy, Initial residual = 0.041842, Final residual = 1.7956e-11, No Iterations 2
DILUPBiCG:  Solving for Uz, Initial residual = 0.041537, Final residual = 3.0393e-11, No Iterations 2
DILUPBiCG:  Solving for O2, Initial residual = 0.0025241, Final residual = 2.9761e-11, No Iterations 2
DILUPBiCG:  Solving for H2O, Initial residual = 0, Final residual = 0, No Iterations 0
DILUPBiCG:  Solving for CH4, Initial residual = 0, Final residual = 0, No Iterations 0
DILUPBiCG:  Solving for CO2, Initial residual = 0, Final residual = 0, No Iterations 0
      O2	min/ave/max  =	     0.23301	     0.23301	     0.23301
     H2O	min/ave/max  =	           0	           0	           0
     CH4	min/ave/max  =	           0	           0	           0
     CO2	min/ave/max  =	           0	           0	           0
      N2	min/ave/max  =	     0.76699	     0.76699	     0.76699
DILUPBiCG:  Solving for h, Initial residual = 0.00057903, Final residual = 4.0719e-09, No Iterations 1
min/max(T) = 298.15, 298.24
GAMG:  Solving for p_rgh, Initial residual = 0.1061, Final residual = 0.00045318, No Iterations 3
diagonal:  Solving for rho, Initial residual = 0, Final residual = 0, No Iterations 0
time step continuity errors : sum local = 3.7789e-07, global = -2.2795e-07, cumulative = -0.0029247
GAMG:  Solving for p_rgh, Initial residual = 0.031273, Final residual = 5.0646e-08, No Iterations 9
diagonal:  Solving for rho, Initial residual = 0, Final residual = 0, No Iterations 0
time step continuity errors : sum local = 8.7416e-11, global = 9.9274e-12, cumulative = -0.0029247
DILUPBiCG:  Solving for k, Initial residual = 0.017253, Final residual = 6.8409e-10, No Iterations 2
ExecutionTime = 2.05 s  ClockTime = 2 s

Courant Number mean: 0.00098402 max: 0.035343
Time = 0.26


Solving 3-D cloud reactingCloud1

--> Cloud: reactingCloud1 injector: uniformSamplingSprinklerInjection
    Added 500 new parcels

Cloud: reactingCloud1
    Current number of parcels       = 6500
    Current mass in system          = 1.9749
    Linear momentum                 = (0.041412 -8.8847 0.062076)
   |Linear momentum|                = 8.8851
    Linear kinetic energy           = 77.832
    uniformSamplingSprinklerInjection:
        number of parcels added     = 6500
        mass introduced             = 1.9749
    Parcel fate (number, mass)
      - escape                      = 0, 0
      - stick                       = 0, 0
    Temperature min/max             = 300, 300
    Mass transfer phase change      = 0

diagonal:  Solving for rho, Initial residual = 0, Final residual = 0, No Iterations 0
PIMPLE: iteration 1
DILUPBiCG:  Solving for Ux, Initial residual = 0.036828, Final residual = 2.4714e-11, No Iterations 2
DILUPBiCG:  Solving for Uy, Initial residual = 0.038289, Final residual = 2.2911e-11, No Iterations 2
DILUPBiCG:  Solving for Uz, Initial residual = 0.037014, Final residual = 2.5099e-11, No Iterations 2
DILUPBiCG:  Solving for O2, Initial residual = 0.0024987, Final residual = 8.7121e-09, No Iterations 1
DILUPBiCG:  Solving for H2O, Initial residual = 0, Final residual = 0, No Iterations 0
DILUPBiCG:  Solving for CH4, Initial residual = 0, Final residual = 0, No Iterations 0
DILUPBiCG:  Solving for CO2, Initial residual = 0, Final residual = 0, No Iterations 0
      O2	min/ave/max  =	     0.23301	     0.23301	     0.23301
     H2O	min/ave/max  =	           0	           0	           0
     CH4	min/ave/max  =	           0	           0	           0
     CO2	min/ave/max  =	           0	           0	           0
      N2	min/ave/max  =	     0.76699	     0.76699	     0.76699
DILUPBiCG:  Solving for h, Initial residual = 0.0005757, Final residual = 4.0353e-09, No Iterations 1
min/max(T) = 298.15, 298.24
GAMG:  Solving for p_rgh, Initial residual = 0.097935, Final residual = 0.00043563, No Iterations 3
diagonal:  Solving for rho, Initial residual = 0, Final residual = 0, No Iterations 0
time step continuity errors : sum local = 3.3388e-07, global = -1.7052e-07, cumulative = -0.0029249
GAMG:  Solving for p_rgh, Initial residual = 0.030883, Final residual = 4.7267e-08, No Iterations 9
diagonal:  Solving for rho, Initial residual = 0, Final residual = 0, No Iterations 0
time step continuity errors : sum local = 6.7411e-11, global = -3.0534e-11, cumulative = -0.0029249
DILUPBiCG:  Solving for k, Initial residual = 0.02219, Final residual = 2.2256e-09, No Iterations 2
ExecutionTime = 2.19 s  ClockTime = 2 s

Courant Number mean: 0.001011 max: 0.038772
Time = 0.28


Solving 3-D cloud reactingCloud1

--> Cloud: reactingCloud1 injector: uniformSamplingSprinklerInjection
    Added 500 new parcels

Cloud: reactingCloud1
    Current number of parcels       = 7000
    Current mass in system          = 2.1268
    Linear momentum                 = (0.020024 -9.3561 0.081658)
   |Linear momentum|                = 9.3565
    Linear kinetic energy           = 79.812
    uniformSamplingSprinklerInjection:
        number of parcels added     = 7000
        mass introduced             = 2.1268
    Parcel fate (number, mass)
      - escape                      = 0, 0
      - stick                       = 0, 0
    Temperature min/max             = 300, 300
    Mass transfer phase change      = 0

diagonal:  Solving for rho, Initial residual = 0, Final residual = 0, No Iterations 0
PIMPLE: iteration 1
DILUPBiCG:  Solving for Ux, Initial residual = 0.034013, Final residual = 3.7343e-11, No Iterations 2
DILUPBiCG:  Solving for Uy, Initial residual = 0.035051, Final residual = 3.48e-11, No Iterations 2
DILUPBiCG:  Solving for Uz, Initial residual = 0.033797, Final residual = 3.0866e-11, No Iterations 2
DILUPBiCG:  Solving for O2, Initial residual = 0.0025141, Final residual = 7.6036e-12, No Iterations 2
DILUPBiCG:  Solving for H2O, Initial residual = 0, Final residual = 0, No Iterations 0
DILUPBiCG:  Solving for CH4, Initial residual = 0, Final residual = 0, No Iterations 0
DILUPBiCG:  Solving for CO2, Initial residual = 0, Final residual = 0, No Iterations 0
      O2	min/ave/max  =	     0.23301	     0.23301	     0.23301
     H2O	min/ave/max  =	           0	           0	           0
     CH4	min/ave/max  =	           0	           0	           0
     CO2	min/ave/max  =	           0	           0	           0
      N2	min/ave/max  =	     0.76699	     0.76699	     0.76699
DILUPBiCG:  Solving for h, Initial residual = 0.00040552, Final residual = 1.1876e-12, No Iterations 2
min/max(T) = 298.15, 298.24
GAMG:  Solving for p_rgh, Initial residual = 0.09126, Final residual = 0.00041214, No Iterations 3
diagonal:  Solving for rho, Initial residual = 0, Final residual = 0, No Iterations 0
time step continuity errors : sum local = 2.9237e-07, global = -1.5694e-07, cumulative = -0.0029251
GAMG:  Solving for p_rgh, Initial residual = 0.02871, Final residual = 4.6218e-08, No Iterations 9
diagonal:  Solving for rho, Initial residual = 0, Final residual = 0, No Iterations 0
time step continuity errors : sum local = 5.5988e-11, global = -2.3974e-11, cumulative = -0.0029251
DILUPBiCG:  Solving for k, Initial residual = 0.027606, Final residual = 4.3454e-09, No Iterations 2
ExecutionTime = 2.34 s  ClockTime = 2 s

Courant Number mean: 0.0010392 max: 0.041284
Time = 0.3


Solving 3-D cloud reactingCloud1

--> Cloud: reactingCloud1 injector: uniformSamplingSprinklerInjection
    Added 500 new parcels

Cloud: reactingCloud1
    Current number of parcels       = 7500
    Current mass in system          = 2.2788
    Linear momentum                 = (-0.0084749 -9.7397 0.1503)
   |Linear momentum|                = 9.7409
    Linear kinetic energy           = 82.071
    uniformSamplingSprinklerInjection:
        number of parcels added     = 7500
        mass introduced             = 2.2788
    Parcel fate (number, mass)
      - escape                      = 0, 0
      - stick                       = 0, 0
    Temperature min/max             = 300, 300
    Mass transfer phase change      = 0

diagonal:  Solving for rho, Initial residual = 0, Final residual = 0, No Iterations 0
PIMPLE: iteration 1
DILUPBiCG:  Solving for Ux, Initial residual = 0.030454, Final residual = 4.69e-11, No Iterations 2
DILUPBiCG:  Solving for Uy, Initial residual = 0.032209, Final residual = 4.5848e-11, No Iterations 2
DILUPBiCG:  Solving for Uz, Initial residual = 0.030191, Final residual = 3.3558e-11, No Iterations 2
DILUPBiCG:  Solving for O2, Initial residual = 0.0025463, Final residual = 2.5908e-12, No Iterations 2
DILUPBiCG:  Solving for H2O, Initial residual = 0, Final residual = 0, No Iterations 0
DILUPBiCG:  Solving for CH4, Initial residual = 0, Final residual = 0, No Iterations 0
DILUPBiCG:  Solving for CO2, Initial residual = 0, Final residual = 0, No Iterations 0
      O2	min/ave/max  =	     0.23301	     0.23301	     0.23301
     H2O	min/ave/max  =	           0	           0	           0
     CH4	min/ave/max  =	           0	           0	           0
     CO2	min/ave/max  =	           0	           0	           0
      N2	min/ave/max  =	     0.76699	     0.76699	     0.76699
DILUPBiCG:  Solving for h, Initial residual = 0.00040417, Final residual = 3.1031e-13, No Iterations 2
min/max(T) = 298.15, 298.24
GAMG:  Solving for p_rgh, Initial residual = 0.084938, Final residual = 0.00042616, No Iterations 3
diagonal:  Solving for rho, Initial residual = 0, Final residual = 0, No Iterations 0
time step continuity errors : sum local = 2.8112e-07, global = -1.5485e-07, cumulative = -0.0029252
GAMG:  Solving for p_rgh, Initial residual = 0.029762, Final residual = 4.703e-08, No Iterations 9
diagonal:  Solving for rho, Initial residual = 0, Final residual = 0, No Iterations 0
time step continuity errors : sum local = 5.6419e-11, global = -3.7002e-11, cumulative = -0.0029252
DILUPBiCG:  Solving for k, Initial residual = 0.033398, Final residual = 2.5739e-15, No Iterations 3
ExecutionTime = 2.49 s  ClockTime = 3 s

Courant Number mean: 0.0010684 max: 0.043886
Time = 0.32


Solving 3-D cloud reactingCloud1

--> Cloud: reactingCloud1 injector: uniformSamplingSprinklerInjection
    Added 500 new parcels

Cloud: reactingCloud1
    Current number of parcels       = 8000
    Current mass in system          = 2.4307
    Linear momentum                 = (-0.0034797 -10.259 0.18007)
   |Linear momentum|                = 10.261
    Linear kinetic energy           = 83.429
    uniformSamplingSprinklerInjection:
        number of parcels added     = 8000
        mass introduced             = 2.4307
    Parcel fate (number, mass)
      - escape                      = 0, 0
      - stick                       = 0, 0
    Temperature min/max             = 300, 300
    Mass transfer phase change      = 0

diagonal:  Solving for rho, Initial residual = 0, Final residual = 0, No Iterations 0
PIMPLE: iteration 1
DILUPBiCG:  Solving for Ux, Initial residual = 0.02776, Final residual = 6.2312e-11, No Iterations 2
DILUPBiCG:  Solving for Uy, Initial residual = 0.030687, Final residual = 5.781e-11, No Iterations 2
DILUPBiCG:  Solving for Uz, Initial residual = 0.027245, Final residual = 4.4266e-11, No Iterations 2
DILUPBiCG:  Solving for O2, Initial residual = 0.0025115, Final residual = 8.2553e-12, No Iterations 2
DILUPBiCG:  Solving for H2O, Initial residual = 0, Final residual = 0, No Iterations 0
DILUPBiCG:  Solving for CH4, Initial residual = 0, Final residual = 0, No Iterations 0
DILUPBiCG:  Solving for CO2, Initial residual = 0, Final residual = 0, No Iterations 0
      O2	min/ave/max  =	     0.23301	     0.23301	     0.23301
     H2O	min/ave/max  =	           0	           0	           0
     CH4	min/ave/max  =	           0	           0	           0
     CO2	min/ave/max  =	           0	           0	           0
      N2	min/ave/max  =	     0.76699	     0.76699	     0.76699
DILUPBiCG:  Solving for h, Initial residual = 0.00035712, Final residual = 9.3577e-09, No Iterations 1
min/max(T) = 298.15, 298.24
GAMG:  Solving for p_rgh, Initial residual = 0.081712, Final residual = 0.0004137, No Iterations 3
diagonal:  Solving for rho, Initial residual = 0, Final residual = 0, No Iterations 0
time step continuity errors : sum local = 2.5549e-07, global = -8.8504e-08, cumulative = -0.0029253
GAMG:  Solving for p_rgh, Initial residual = 0.024798, Final residual = 4.3346e-08, No Iterations 9
diagonal:  Solving for rho, Initial residual = 0, Final residual = 0, No Iterations 0
time step continuity errors : sum local = 4.8956e-11, global = -3.0936e-11, cumulative = -0.0029253
DILUPBiCG:  Solving for k, Initial residual = 0.039694, Final residual = 4.8839e-15, No Iterations 3
ExecutionTime = 2.65 s  ClockTime = 3 s

Courant Number mean: 0.001099 max: 0.046502
Time = 0.34


Solving 3-D cloud reactingCloud1

--> Cloud: reactingCloud1 injector: uniformSamplingSprinklerInjection
    Added 500 new parcels

Cloud: reactingCloud1
    Current number of parcels       = 8500
    Current mass in system          = 2.5826
    Linear momentum                 = (0.010185 -10.587 0.088289)
   |Linear momentum|                = 10.587
    Linear kinetic energy           = 84.006
    uniformSamplingSprinklerInjection:
        number of parcels added     = 8500
        mass introduced             = 2.5826
    Parcel fate (number, mass)
      - escape                      = 0, 0
      - stick                       = 0, 0
    Temperature min/max             = 300, 300
    Mass transfer phase change      = 0

diagonal:  Solving for rho, Initial residual = 0, Final residual = 0, No Iterations 0
PIMPLE: iteration 1
DILUPBiCG:  Solving for Ux, Initial residual = 0.025988, Final residual = 6.2653e-11, No Iterations 2
DILUPBiCG:  Solving for Uy, Initial residual = 0.028951, Final residual = 7.2115e-11, No Iterations 2
DILUPBiCG:  Solving for Uz, Initial residual = 0.025249, Final residual = 2.9809e-11, No Iterations 2
DILUPBiCG:  Solving for O2, Initial residual = 0.0024866, Final residual = 5.2777e-12, No Iterations 2
DILUPBiCG:  Solving for H2O, Initial residual = 0, Final residual = 0, No Iterations 0
DILUPBiCG:  Solving for CH4, Initial residual = 0, Final residual = 0, No Iterations 0
DILUPBiCG:  Solving for CO2, Initial residual = 0, Final residual = 0, No Iterations 0
      O2	min/ave/max  =	     0.23301	     0.23301	     0.23301
     H2O	min/ave/max  =	           0	           0	           0
     CH4	min/ave/max  =	           0	           0	           0
     CO2	min/ave/max  =	           0	           0	           0
      N2	min/ave/max  =	     0.76699	     0.76699	     0.76699
DILUPBiCG:  Solving for h, Initial residual = 0.00028875, Final residual = 9.2624e-09, No Iterations 1
min/max(T) = 298.15, 298.24
GAMG:  Solving for p_rgh, Initial residual = 0.074078, Final residual = 0.00034214, No Iterations 3
diagonal:  Solving for rho, Initial residual = 0, Final residual = 0, No Iterations 0
time step continuity errors : sum local = 1.991e-07, global = -5.5875e-08, cumulative = -0.0029254
GAMG:  Solving for p_rgh, Initial residual = 0.025142, Final residual = 3.5408e-08, No Iterations 9
diagonal:  Solving for rho, Initial residual = 0, Final residual = 0, No Iterations 0
time step continuity errors : sum local = 4.8438e-11, global = -3.9504e-11, cumulative = -0.0029254
DILUPBiCG:  Solving for k, Initial residual = 0.045641, Final residual = 7.4493e-15, No Iterations 3
ExecutionTime = 2.81 s  ClockTime = 3 s

Courant Number mean: 0.0011302 max: 0.049764
Time = 0.36


Solving 3-D cloud reactingCloud1

--> Cloud: reactingCloud1 injector: uniformSamplingSprinklerInjection
    Added 500 new parcels

Cloud: reactingCloud1
    Current number of parcels       = 9000
    Current mass in system          = 2.7345
    Linear momentum                 = (-0.0041114 -11.144 0.10943)
   |Linear momentum|                = 11.144
    Linear kinetic energy           = 86.292
    uniformSamplingSprinklerInjection:
        number of parcels added     = 9000
        mass introduced             = 2.7345
    Parcel fate (number, mass)
      - escape                      = 0, 0
      - stick                       = 0, 0
    Temperature min/max             = 300, 300
    Mass transfer phase change      = 0

diagonal:  Solving for rho, Initial residual = 0, Final residual = 0, No Iterations 0
PIMPLE: iteration 1
DILUPBiCG:  Solving for Ux, Initial residual = 0.023486, Final residual = 4.641e-11, No Iterations 2
DILUPBiCG:  Solving for Uy, Initial residual = 0.027311, Final residual = 8.6242e-11, No Iterations 2
DILUPBiCG:  Solving for Uz, Initial residual = 0.023494, Final residual = 5.3725e-11, No Iterations 2
DILUPBiCG:  Solving for O2, Initial residual = 0.0025173, Final residual = 4.0875e-09, No Iterations 1
DILUPBiCG:  Solving for H2O, Initial residual = 0, Final residual = 0, No Iterations 0
DILUPBiCG:  Solving for CH4, Initial residual = 0, Final residual = 0, No Iterations 0
DILUPBiCG:  Solving for CO2, Initial residual = 0, Final residual = 0, No Iterations 0
      O2	min/ave/max  =	     0.23301	     0.23301	     0.23301
     H2O	min/ave/max  =	           0	           0	           0
     CH4	min/ave/max  =	           0	           0	           0
     CO2	min/ave/max  =	           0	           0	           0
      N2	min/ave/max  =	     0.76699	     0.76699	     0.76699
DILUPBiCG:  Solving for h, Initial residual = 0.00024996, Final residual = 7.419e-09, No Iterations 1
min/max(T) = 298.15, 298.24
GAMG:  Solving for p_rgh, Initial residual = 0.073783, Final residual = 0.00032726, No Iterations 3
diagonal:  Solving for rho, Initial residual = 0, Final residual = 0, No Iterations 0
time step continuity errors : sum local = 1.7983e-07, global = -4.6716e-08, cumulative = -0.0029254
GAMG:  Solving for p_rgh, Initial residual = 0.024353, Final residual = 3.7185e-08, No Iterations 9
diagonal:  Solving for rho, Initial residual = 0, Final residual = 0, No Iterations 0
time step continuity errors : sum local = 4.2275e-11, global = -3.3614e-11, cumulative = -0.0029254
DILUPBiCG:  Solving for k, Initial residual = 0.050379, Final residual = 1.1449e-14, No Iterations 3
ExecutionTime = 2.97 s  ClockTime = 3 s

Courant Number mean: 0.0011591 max: 0.052023
Time = 0.38


Solving 3-D cloud reactingCloud1

--> Cloud: reactingCloud1 injector: uniformSamplingSprinklerInjection
    Added 500 new parcels

Cloud: reactingCloud1
    Current number of parcels       = 9500
    Current mass in system          = 2.8864
    Linear momentum                 = (-0.11395 -11.488 0.10711)
   |Linear momentum|                = 11.489
    Linear kinetic energy           = 87.874
    uniformSamplingSprinklerInjection:
        number of parcels added     = 9500
        mass introduced             = 2.8864
    Parcel fate (number, mass)
      - escape                      = 0, 0
      - stick                       = 0, 0
    Temperature min/max             = 300, 300
    Mass transfer phase change      = 0

diagonal:  Solving for rho, Initial residual = 0, Final residual = 0, No Iterations 0
PIMPLE: iteration 1
DILUPBiCG:  Solving for Ux, Initial residual = 0.021976, Final residual = 5.0346e-11, No Iterations 2
DILUPBiCG:  Solving for Uy, Initial residual = 0.025724, Final residual = 9.9366e-11, No Iterations 2
DILUPBiCG:  Solving for Uz, Initial residual = 0.022238, Final residual = 5.0402e-11, No Iterations 2
DILUPBiCG:  Solving for O2, Initial residual = 0.002499, Final residual = 9.6019e-09, No Iterations 1
DILUPBiCG:  Solving for H2O, Initial residual = 0, Final residual = 0, No Iterations 0
DILUPBiCG:  Solving for CH4, Initial residual = 0, Final residual = 0, No Iterations 0
DILUPBiCG:  Solving for CO2, Initial residual = 0, Final residual = 0, No Iterations 0
      O2	min/ave/max  =	     0.23301	     0.23301	     0.23301
     H2O	min/ave/max  =	           0	           0	           0
     CH4	min/ave/max  =	           0	           0	           0
     CO2	min/ave/max  =	           0	           0	           0
      N2	min/ave/max  =	     0.76699	     0.76699	     0.76699
DILUPBiCG:  Solving for h, Initial residual = 0.00024675, Final residual = 9.6205e-09, No Iterations 1
min/max(T) = 298.15, 298.24
GAMG:  Solving for p_rgh, Initial residual = 0.073621, Final residual = 0.00033384, No Iterations 3
diagonal:  Solving for rho, Initial residual = 0, Final residual = 0, No Iterations 0
time step continuity errors : sum local = 1.7246e-07, global = -3.7521e-08, cumulative = -0.0029254
GAMG:  Solving for p_rgh, Initial residual = 0.027151, Final residual = 3.4972e-08, No Iterations 9
diagonal:  Solving for rho, Initial residual = 0, Final residual = 0, No Iterations 0
time step continuity errors : sum local = 4.5346e-11, global = -3.9554e-11, cumulative = -0.0029254
DILUPBiCG:  Solving for k, Initial residual = 0.054256, Final residual = 1.6367e-14, No Iterations 3
ExecutionTime = 3.14 s  ClockTime = 3 s

Courant Number mean: 0.0011876 max: 0.055087
Time = 0.4


Solving 3-D cloud reactingCloud1

--> Cloud: reactingCloud1 injector: uniformSamplingSprinklerInjection
    Added 500 new parcels

Cloud: reactingCloud1
    Current number of parcels       = 10000
    Current mass in system          = 3.0383
    Linear momentum                 = (-0.07807 -11.98 0.018027)
   |Linear momentum|                = 11.98
    Linear kinetic energy           = 88.902
    uniformSamplingSprinklerInjection:
        number of parcels added     = 10000
        mass introduced             = 3.0383
    Parcel fate (number, mass)
      - escape                      = 0, 0
      - stick                       = 0, 0
    Temperature min/max             = 300, 300
    Mass transfer phase change      = 0

diagonal:  Solving for rho, Initial residual = 0, Final residual = 0, No Iterations 0
PIMPLE: iteration 1
DILUPBiCG:  Solving for Ux, Initial residual = 0.020585, Final residual = 8.6174e-11, No Iterations 2
DILUPBiCG:  Solving for Uy, Initial residual = 0.024456, Final residual = 1.2904e-10, No Iterations 2
DILUPBiCG:  Solving for Uz, Initial residual = 0.020913, Final residual = 1.5037e-10, No Iterations 2
DILUPBiCG:  Solving for O2, Initial residual = 0.0025192, Final residual = 5.6679e-12, No Iterations 2
DILUPBiCG:  Solving for H2O, Initial residual = 0, Final residual = 0, No Iterations 0
DILUPBiCG:  Solving for CH4, Initial residual = 0, Final residual = 0, No Iterations 0
DILUPBiCG:  Solving for CO2, Initial residual = 0, Final residual = 0, No Iterations 0
      O2	min/ave/max  =	     0.23301	     0.23301	     0.23301
     H2O	min/ave/max  =	           0	           0	           0
     CH4	min/ave/max  =	           0	           0	           0
     CO2	min/ave/max  =	           0	           0	           0
      N2	min/ave/max  =	     0.76699	     0.76699	     0.76699
DILUPBiCG:  Solving for h, Initial residual = 0.00024021, Final residual = 4.3285e-13, No Iterations 2
min/max(T) = 298.15, 298.24
GAMG:  Solving for p_rgh, Initial residual = 0.075561, Final residual = 0.00038648, No Iterations 3
diagonal:  Solving for rho, Initial residual = 0, Final residual = 0, No Iterations 0
time step continuity errors : sum local = 1.8819e-07, global = -1.3809e-08, cumulative = -0.0029255
GAMG:  Solving for p_rgh, Initial residual = 0.026562, Final residual = 4.2491e-08, No Iterations 9
diagonal:  Solving for rho, Initial residual = 0, Final residual = 0, No Iterations 0
time step continuity errors : sum local = 4.2378e-11, global = -3.2962e-11, cumulative = -0.0029255
DILUPBiCG:  Solving for k, Initial residual = 0.057197, Final residual = 2.355e-14, No Iterations 3
ExecutionTime = 3.3 s  ClockTime = 3 s

Courant Number mean: 0.0012168 max: 0.058043
Time = 0.42


Solving 3-D cloud reactingCloud1

--> Cloud: reactingCloud1 injector: uniformSamplingSprinklerInjection
    Added 500 new parcels

Cloud: reactingCloud1
    Current number of parcels       = 10500
    Current mass in system          = 3.1903
    Linear momentum                 = (-0.067256 -12.394 0.10058)
   |Linear momentum|                = 12.394
    Linear kinetic energy           = 89.342
    uniformSamplingSprinklerInjection:
        number of parcels added     = 10500
        mass introduced             = 3.1903
    Parcel fate (number, mass)
      - escape                      = 0, 0
      - stick                       = 0, 0
    Temperature min/max             = 300, 300
    Mass transfer phase change      = 0

diagonal:  Solving for rho, Initial residual = 0, Final residual = 0, No Iterations 0
PIMPLE: iteration 1
DILUPBiCG:  Solving for Ux, Initial residual = 0.020251, Final residual = 8.2176e-11, No Iterations 2
DILUPBiCG:  Solving for Uy, Initial residual = 0.023363, Final residual = 1.2573e-10, No Iterations 2
DILUPBiCG:  Solving for Uz, Initial residual = 0.020411, Final residual = 7.4501e-11, No Iterations 2
DILUPBiCG:  Solving for O2, Initial residual = 0.0025064, Final residual = 1.251e-12, No Iterations 2
DILUPBiCG:  Solving for H2O, Initial residual = 0, Final residual = 0, No Iterations 0
DILUPBiCG:  Solving for CH4, Initial residual = 0, Final residual = 0, No Iterations 0
DILUPBiCG:  Solving for CO2, Initial residual = 0, Final residual = 0, No Iterations 0
      O2	min/ave/max  =	     0.23301	     0.23301	     0.23301
     H2O	min/ave/max  =	           0	           0	           0
     CH4	min/ave/max  =	           0	           0	           0
     CO2	min/ave/max  =	           0	           0	           0
      N2	min/ave/max  =	     0.76699	     0.76699	     0.76699
DILUPBiCG:  Solving for h, Initial residual = 0.00022843, Final residual = 1.4614e-12, No Iterations 2
min/max(T) = 298.15, 298.24
GAMG:  Solving for p_rgh, Initial residual = 0.072234, Final residual = 0.00031848, No Iterations 3
diagonal:  Solving for rho, Initial residual = 0, Final residual = 0, No Iterations 0
time step continuity errors : sum local = 1.4682e-07, global = -1.8545e-08, cumulative = -0.0029255
GAMG:  Solving for p_rgh, Initial residual = 0.027757, Final residual = 3.9288e-08, No Iterations 9
diagonal:  Solving for rho, Initial residual = 0, Final residual = 0, No Iterations 0
time step continuity errors : sum local = 4.5716e-11, global = -4.0107e-11, cumulative = -0.0029255
DILUPBiCG:  Solving for k, Initial residual = 0.059341, Final residual = 2.9087e-14, No Iterations 3
ExecutionTime = 3.47 s  ClockTime = 3 s

Courant Number mean: 0.0012472 max: 0.060102
Time = 0.44


Solving 3-D cloud reactingCloud1

--> Cloud: reactingCloud1 injector: uniformSamplingSprinklerInjection
    Added 500 new parcels

Cloud: reactingCloud1
    Current number of parcels       = 11000
    Current mass in system          = 3.3422
    Linear momentum                 = (-0.087805 -12.895 0.10159)
   |Linear momentum|                = 12.896
    Linear kinetic energy           = 91.204
    uniformSamplingSprinklerInjection:
        number of parcels added     = 11000
        mass introduced             = 3.3422
    Parcel fate (number, mass)
      - escape                      = 0, 0
      - stick                       = 0, 0
    Temperature min/max             = 300, 300
    Mass transfer phase change      = 0

diagonal:  Solving for rho, Initial residual = 0, Final residual = 0, No Iterations 0
PIMPLE: iteration 1
DILUPBiCG:  Solving for Ux, Initial residual = 0.019342, Final residual = 1.2365e-10, No Iterations 2
DILUPBiCG:  Solving for Uy, Initial residual = 0.022497, Final residual = 1.4208e-10, No Iterations 2
DILUPBiCG:  Solving for Uz, Initial residual = 0.019581, Final residual = 3.9372e-10, No Iterations 2
DILUPBiCG:  Solving for O2, Initial residual = 0.0025284, Final residual = 1.7873e-12, No Iterations 2
DILUPBiCG:  Solving for H2O, Initial residual = 0, Final residual = 0, No Iterations 0
DILUPBiCG:  Solving for CH4, Initial residual = 0, Final residual = 0, No Iterations 0
DILUPBiCG:  Solving for CO2, Initial residual = 0, Final residual = 0, No Iterations 0
      O2	min/ave/max  =	     0.23301	     0.23301	     0.23301
     H2O	min/ave/max  =	           0	           0	           0
     CH4	min/ave/max  =	           0	           0	           0
     CO2	min/ave/max  =	           0	           0	           0
      N2	min/ave/max  =	     0.76699	     0.76699	     0.76699
DILUPBiCG:  Solving for h, Initial residual = 0.00021949, Final residual = 1.0022e-12, No Iterations 2
min/max(T) = 298.15, 298.24
GAMG:  Solving for p_rgh, Initial residual = 0.070161, Final residual = 0.00026141, No Iterations 3
diagonal:  Solving for rho, Initial residual = 0, Final residual = 0, No Iterations 0
time step continuity errors : sum local = 1.1446e-07, global = -2.1428e-08, cumulative = -0.0029255
GAMG:  Solving for p_rgh, Initial residual = 0.024758, Final residual = 3.6388e-08, No Iterations 9
diagonal:  Solving for rho, Initial residual = 0, Final residual = 0, No Iterations 0
time step continuity errors : sum local = 4.4424e-11, global = -3.9022e-11, cumulative = -0.0029255
DILUPBiCG:  Solving for k, Initial residual = 0.060079, Final residual = 3.3773e-14, No Iterations 3
ExecutionTime = 3.65 s  ClockTime = 4 s

Courant Number mean: 0.0012761 max: 0.062337
Time = 0.46


Solving 3-D cloud reactingCloud1

--> Cloud: reactingCloud1 injector: uniformSamplingSprinklerInjection
    Added 500 new parcels

Cloud: reactingCloud1
    Current number of parcels       = 11500
    Current mass in system          = 3.4941
    Linear momentum                 = (-0.19083 -13.22 0.033617)
   |Linear momentum|                = 13.221
    Linear kinetic energy           = 92.072
    uniformSamplingSprinklerInjection:
        number of parcels added     = 11500
        mass introduced             = 3.4941
    Parcel fate (number, mass)
      - escape                      = 0, 0
      - stick                       = 0, 0
    Temperature min/max             = 300, 300
    Mass transfer phase change      = 0

diagonal:  Solving for rho, Initial residual = 0, Final residual = 0, No Iterations 0
PIMPLE: iteration 1
DILUPBiCG:  Solving for Ux, Initial residual = 0.018665, Final residual = 9.331e-11, No Iterations 2
DILUPBiCG:  Solving for Uy, Initial residual = 0.021871, Final residual = 1.645e-10, No Iterations 2
DILUPBiCG:  Solving for Uz, Initial residual = 0.018565, Final residual = 1.9819e-10, No Iterations 2
DILUPBiCG:  Solving for O2, Initial residual = 0.0025416, Final residual = 4.3864e-12, No Iterations 2
DILUPBiCG:  Solving for H2O, Initial residual = 0, Final residual = 0, No Iterations 0
DILUPBiCG:  Solving for CH4, Initial residual = 0, Final residual = 0, No Iterations 0
DILUPBiCG:  Solving for CO2, Initial residual = 0, Final residual = 0, No Iterations 0
      O2	min/ave/max  =	     0.23301	     0.23301	     0.23301
     H2O	min/ave/max  =	           0	           0	           0
     CH4	min/ave/max  =	           0	           0	           0
     CO2	min/ave/max  =	           0	           0	           0
      N2	min/ave/max  =	     0.76699	     0.76699	     0.76699
DILUPBiCG:  Solving for h, Initial residual = 0.00023335, Final residual = 2.4359e-12, No Iterations 2
min/max(T) = 298.15, 298.24
GAMG:  Solving for p_rgh, Initial residual = 0.065691, Final residual = 0.0002632, No Iterations 3
diagonal:  Solving for rho, Initial residual = 0, Final residual = 0, No Iterations 0
time step continuity errors : sum local = 1.1002e-07, global = -5.9035e-09, cumulative = -0.0029255
GAMG:  Solving for p_rgh, Initial residual = 0.025742, Final residual = 7.5468e-08, No Iterations 8
diagonal:  Solving for rho, Initial residual = 0, Final residual = 0, No Iterations 0
time step continuity errors : sum local = 4.2418e-11, global = -1.7445e-11, cumulative = -0.0029255
DILUPBiCG:  Solving for k, Initial residual = 0.060182, Final residual = 5.7011e-14, No Iterations 3
ExecutionTime = 3.82 s  ClockTime = 4 s

Courant Number mean: 0.0013065 max: 0.065563
Time = 0.48


Solving 3-D cloud reactingCloud1

--> Cloud: reactingCloud1 injector: uniformSamplingSprinklerInjection
    Added 500 new parcels

Cloud: reactingCloud1
    Current number of parcels       = 12000
    Current mass in system          = 3.646
    Linear momentum                 = (-0.009328 -13.612 0.10731)
   |Linear momentum|                = 13.612
    Linear kinetic energy           = 93.38
    uniformSamplingSprinklerInjection:
        number of parcels added     = 12000
        mass introduced             = 3.646
    Parcel fate (number, mass)
      - escape                      = 0, 0
      - stick                       = 0, 0
    Temperature min/max             = 300, 300
    Mass transfer phase change      = 0

diagonal:  Solving for rho, Initial residual = 0, Final residual = 0, No Iterations 0
PIMPLE: iteration 1
DILUPBiCG:  Solving for Ux, Initial residual = 0.017911, Final residual = 3.3475e-10, No Iterations 2
DILUPBiCG:  Solving for Uy, Initial residual = 0.021339, Final residual = 2.1254e-10, No Iterations 2
DILUPBiCG:  Solving for Uz, Initial residual = 0.018139, Final residual = 1.5686e-09, No Iterations 2
DILUPBiCG:  Solving for O2, Initial residual = 0.0025245, Final residual = 8.315e-12, No Iterations 2
DILUPBiCG:  Solving for H2O, Initial residual = 0, Final residual = 0, No Iterations 0
DILUPBiCG:  Solving for CH4, Initial residual = 0, Final residual = 0, No Iterations 0
DILUPBiCG:  Solving for CO2, Initial residual = 0, Final residual = 0, No Iterations 0
      O2	min/ave/max  =	     0.23301	     0.23301	     0.23301
     H2O	min/ave/max  =	           0	           0	           0
     CH4	min/ave/max  =	           0	           0	           0
     CO2	min/ave/max  =	           0	           0	           0
      N2	min/ave/max  =	     0.76699	     0.76699	     0.76699
DILUPBiCG:  Solving for h, Initial residual = 0.00021911, Final residual = 5.8626e-13, No Iterations 2
min/max(T) = 298.15, 298.24
GAMG:  Solving for p_rgh, Initial residual = 0.069985, Final residual = 0.00022967, No Iterations 3
diagonal:  Solving for rho, Initial residual = 0, Final residual = 0, No Iterations 0
time step continuity errors : sum local = 9.3151e-08, global = 3.0452e-10, cumulative = -0.0029255
GAMG:  Solving for p_rgh, Initial residual = 0.023637, Final residual = 9.9735e-08, No Iterations 8
diagonal:  Solving for rho, Initial residual = 0, Final residual = 0, No Iterations 0
time step continuity errors : sum local = 4.4776e-11, global = 7.1593e-12, cumulative = -0.0029255
DILUPBiCG:  Solving for k, Initial residual = 0.059294, Final residual = 8.1071e-14, No Iterations 3
ExecutionTime = 4.01 s  ClockTime = 4 s

Courant Number mean: 0.0013352 max: 0.067457
Time = 0.5


Solving 3-D cloud reactingCloud1

--> Cloud: reactingCloud1 injector: uniformSamplingSprinklerInjection
    Added 500 new parcels

Cloud: reactingCloud1
    Current number of parcels       = 12500
    Current mass in system          = 3.7979
    Linear momentum                 = (-0.19047 -14.057 0.061791)
   |Linear momentum|                = 14.058
    Linear kinetic energy           = 94.755
    uniformSamplingSprinklerInjection:
        number of parcels added     = 12500
        mass introduced             = 3.7979
    Parcel fate (number, mass)
      - escape                      = 0, 0
      - stick                       = 0, 0
    Temperature min/max             = 300, 300
    Mass transfer phase change      = 0

diagonal:  Solving for rho, Initial residual = 0, Final residual = 0, No Iterations 0
PIMPLE: iteration 1
DILUPBiCG:  Solving for Ux, Initial residual = 0.01739, Final residual = 8.3467e-10, No Iterations 2
DILUPBiCG:  Solving for Uy, Initial residual = 0.0208, Final residual = 1.8931e-10, No Iterations 2
DILUPBiCG:  Solving for Uz, Initial residual = 0.017294, Final residual = 1.4137e-10, No Iterations 2
DILUPBiCG:  Solving for O2, Initial residual = 0.0025222, Final residual = 2.1457e-11, No Iterations 2
DILUPBiCG:  Solving for H2O, Initial residual = 0, Final residual = 0, No Iterations 0
DILUPBiCG:  Solving for CH4, Initial residual = 0, Final residual = 0, No Iterations 0
DILUPBiCG:  Solving for CO2, Initial residual = 0, Final residual = 0, No Iterations 0
      O2	min/ave/max  =	     0.23301	     0.23301	     0.23301
     H2O	min/ave/max  =	           0	           0	           0
     CH4	min/ave/max  =	           0	           0	           0
     CO2	min/ave/max  =	           0	           0	           0
      N2	min/ave/max  =	     0.76699	     0.76699	     0.76699
DILUPBiCG:  Solving for h, Initial residual = 0.00023244, Final residual = 5.074e-13, No Iterations 2
min/max(T) = 298.15, 298.24
GAMG:  Solving for p_rgh, Initial residual = 0.061293, Final residual = 0.00020405, No Iterations 3
diagonal:  Solving for rho, Initial residual = 0, Final residual = 0, No Iterations 0
time step continuity errors : sum local = 8.0574e-08, global = -3.228e-09, cumulative = -0.0029255
GAMG:  Solving for p_rgh, Initial residual = 0.018894, Final residual = 6.1981e-08, No Iterations 8
diagonal:  Solving for rho, Initial residual = 0, Final residual = 0, No Iterations 0
time step continuity errors : sum local = 3.4026e-11, global = -1.1073e-11, cumulative = -0.0029255
DILUPBiCG:  Solving for k, Initial residual = 0.057919, Final residual = 1.0255e-13, No Iterations 3
ExecutionTime = 4.19 s  ClockTime = 4 s

Courant Number mean: 0.0013645 max: 0.070513
Time = 0.52


Solving 3-D cloud reactingCloud1

--> Cloud: reactingCloud1 injector: uniformSamplingSprinklerInjection
    Added 500 new parcels

Cloud: reactingCloud1
    Current number of parcels       = 13000
    Current mass in system          = 3.9498
    Linear momentum                 = (-0.19772 -14.475 0.090907)
   |Linear momentum|                = 14.476
    Linear kinetic energy           = 95.6
    uniformSamplingSprinklerInjection:
        number of parcels added     = 13000
        mass introduced             = 3.9498
    Parcel fate (number, mass)
      - escape                      = 0, 0
      - stick                       = 0, 0
    Temperature min/max             = 300, 300
    Mass transfer phase change      = 0

diagonal:  Solving for rho, Initial residual = 0, Final residual = 0, No Iterations 0
PIMPLE: iteration 1
DILUPBiCG:  Solving for Ux, Initial residual = 0.017247, Final residual = 1.8014e-09, No Iterations 2
DILUPBiCG:  Solving for Uy, Initial residual = 0.020356, Final residual = 2.0215e-10, No Iterations 2
DILUPBiCG:  Solving for Uz, Initial residual = 0.017079, Final residual = 1.4674e-10, No Iterations 2
DILUPBiCG:  Solving for O2, Initial residual = 0.0024841, Final residual = 2.5152e-12, No Iterations 2
DILUPBiCG:  Solving for H2O, Initial residual = 0, Final residual = 0, No Iterations 0
DILUPBiCG:  Solving for CH4, Initial residual = 0, Final residual = 0, No Iterations 0
DILUPBiCG:  Solving for CO2, Initial residual = 0, Final residual = 0, No Iterations 0
      O2	min/ave/max  =	     0.23301	     0.23301	     0.23301
     H2O	min/ave/max  =	           0	           0	           0
     CH4	min/ave/max  =	           0	           0	           0
     CO2	min/ave/max  =	           0	           0	           0
      N2	min/ave/max  =	     0.76699	     0.76699	     0.76699
DILUPBiCG:  Solving for h, Initial residual = 0.00023281, Final residual = 1.1701e-12, No Iterations 2
min/max(T) = 298.15, 298.24
GAMG:  Solving for p_rgh, Initial residual = 0.057737, Final residual = 0.00018369, No Iterations 3
diagonal:  Solving for rho, Initial residual = 0, Final residual = 0, No Iterations 0
time step continuity errors : sum local = 7.1595e-08, global = -5.395e-10, cumulative = -0.0029255
GAMG:  Solving for p_rgh, Initial residual = 0.017504, Final residual = 6.3242e-08, No Iterations 8
diagonal:  Solving for rho, Initial residual = 0, Final residual = 0, No Iterations 0
time step continuity errors : sum local = 2.9853e-11, global = -8.7669e-13, cumulative = -0.0029255
DILUPBiCG:  Solving for k, Initial residual = 0.056197, Final residual = 1.2543e-13, No Iterations 3
ExecutionTime = 4.38 s  ClockTime = 4 s

Courant Number mean: 0.0013941 max: 0.073922
Time = 0.54


Solving 3-D cloud reactingCloud1

--> Cloud: reactingCloud1 injector: uniformSamplingSprinklerInjection
    Added 500 new parcels

Cloud: reactingCloud1
    Current number of parcels       = 13500
    Current mass in system          = 4.1018
    Linear momentum                 = (-0.089003 -14.807 0.11643)
   |Linear momentum|                = 14.808
    Linear kinetic energy           = 95.942
    uniformSamplingSprinklerInjection:
        number of parcels added     = 13500
        mass introduced             = 4.1018
    Parcel fate (number, mass)
      - escape                      = 0, 0
      - stick                       = 0, 0
    Temperature min/max             = 300, 300
    Mass transfer phase change      = 0

diagonal:  Solving for rho, Initial residual = 0, Final residual = 0, No Iterations 0
PIMPLE: iteration 1
DILUPBiCG:  Solving for Ux, Initial residual = 0.017045, Final residual = 2.6705e-09, No Iterations 2
DILUPBiCG:  Solving for Uy, Initial residual = 0.019876, Final residual = 2.9535e-10, No Iterations 2
DILUPBiCG:  Solving for Uz, Initial residual = 0.016802, Final residual = 4.0924e-10, No Iterations 2
DILUPBiCG:  Solving for O2, Initial residual = 0.0025083, Final residual = 1.287e-11, No Iterations 2
DILUPBiCG:  Solving for H2O, Initial residual = 0, Final residual = 0, No Iterations 0
DILUPBiCG:  Solving for CH4, Initial residual = 0, Final residual = 0, No Iterations 0
DILUPBiCG:  Solving for CO2, Initial residual = 0, Final residual = 0, No Iterations 0
      O2	min/ave/max  =	     0.23301	     0.23301	     0.23301
     H2O	min/ave/max  =	           0	           0	           0
     CH4	min/ave/max  =	           0	           0	           0
     CO2	min/ave/max  =	           0	           0	           0
      N2	min/ave/max  =	     0.76699	     0.76699	     0.76699
DILUPBiCG:  Solving for h, Initial residual = 0.00022644, Final residual = 1.0023e-12, No Iterations 2
min/max(T) = 298.15, 298.24
GAMG:  Solving for p_rgh, Initial residual = 0.051811, Final residual = 0.00014605, No Iterations 3
diagonal:  Solving for rho, Initial residual = 0, Final residual = 0, No Iterations 0
time step continuity errors : sum local = 5.6473e-08, global = -6.6899e-09, cumulative = -0.0029255
GAMG:  Solving for p_rgh, Initial residual = 0.01604, Final residual = 6.6764e-08, No Iterations 8
diagonal:  Solving for rho, Initial residual = 0, Final residual = 0, No Iterations 0
time step continuity errors : sum local = 3.0804e-11, global = 1.0537e-12, cumulative = -0.0029255
DILUPBiCG:  Solving for k, Initial residual = 0.054289, Final residual = 1.5824e-13, No Iterations 3
ExecutionTime = 4.56 s  ClockTime = 5 s

Courant Number mean: 0.0014237 max: 0.07561
Time = 0.56


Solving 3-D cloud reactingCloud1

--> Cloud: reactingCloud1 injector: uniformSamplingSprinklerInjection
    Added 500 new parcels

Cloud: reactingCloud1
    Current number of parcels       = 14000
    Current mass in system          = 4.2537
    Linear momentum                 = (-0.10322 -15.29 0.12821)
   |Linear momentum|                = 15.291
    Linear kinetic energy           = 96.719
    uniformSamplingSprinklerInjection:
        number of parcels added     = 14000
        mass introduced             = 4.2537
    Parcel fate (number, mass)
      - escape                      = 0, 0
      - stick                       = 0, 0
    Temperature min/max             = 300, 300
    Mass transfer phase change      = 0

diagonal:  Solving for rho, Initial residual = 0, Final residual = 0, No Iterations 0
PIMPLE: iteration 1
DILUPBiCG:  Solving for Ux, Initial residual = 0.016844, Final residual = 7.0069e-10, No Iterations 2
DILUPBiCG:  Solving for Uy, Initial residual = 0.019596, Final residual = 2.84e-10, No Iterations 2
DILUPBiCG:  Solving for Uz, Initial residual = 0.016781, Final residual = 3.0543e-10, No Iterations 2
DILUPBiCG:  Solving for O2, Initial residual = 0.0024866, Final residual = 1.7883e-11, No Iterations 2
DILUPBiCG:  Solving for H2O, Initial residual = 0, Final residual = 0, No Iterations 0
DILUPBiCG:  Solving for CH4, Initial residual = 0, Final residual = 0, No Iterations 0
DILUPBiCG:  Solving for CO2, Initial residual = 0, Final residual = 0, No Iterations 0
      O2	min/ave/max  =	     0.23301	     0.23301	     0.23301
     H2O	min/ave/max  =	           0	           0	           0
     CH4	min/ave/max  =	           0	           0	           0
     CO2	min/ave/max  =	           0	           0	           0
      N2	min/ave/max  =	     0.76699	     0.76699	     0.76699
DILUPBiCG:  Solving for h, Initial residual = 0.00022444, Final residual = 1.0658e-12, No Iterations 2
min/max(T) = 298.15, 298.24
GAMG:  Solving for p_rgh, Initial residual = 0.04773, Final residual = 0.00014988, No Iterations 3
diagonal:  Solving for rho, Initial residual = 0, Final residual = 0, No Iterations 0
time step continuity errors : sum local = 5.777e-08, global = 6.9062e-09, cumulative = -0.0029255
[...]
GAMG:  Solving for p_rgh, Initial residual = 0.00012244, Final residual = 8.2286e-08, No Iterations 6
diagonal:  Solving for rho, Initial residual = 0, Final residual = 0, No Iterations 0
time step continuity errors : sum local = 7.7475e-11, global = 2.3899e-11, cumulative = -0.0029245
DILUPBiCG:  Solving for k, Initial residual = 0.0070245, Final residual = 9.4625e-10, No Iterations 2
ExecutionTime = 23.88 s  ClockTime = 24 s

Courant Number mean: 0.004048 max: 0.1404
Time = 1.88


Solving 3-D cloud reactingCloud1

--> Cloud: reactingCloud1 injector: uniformSamplingSprinklerInjection
    Added 500 new parcels

Cloud: reactingCloud1
    Current number of parcels       = 43894
    Current mass in system          = 13.165
    Linear momentum                 = (0.12038 -40.064 0.20142)
   |Linear momentum|                = 40.065
    Linear kinetic energy           = 138.04
    uniformSamplingSprinklerInjection:
        number of parcels added     = 47000
        mass introduced             = 14.28
    Parcel fate (number, mass)
      - escape                      = 2928, 0
      - stick                       = 0, 0
    Temperature min/max             = 300, 300
    Mass transfer phase change      = 0

diagonal:  Solving for rho, Initial residual = 0, Final residual = 0, No Iterations 0
PIMPLE: iteration 1
DILUPBiCG:  Solving for Ux, Initial residual = 0.013109, Final residual = 8.2234e-09, No Iterations 2
DILUPBiCG:  Solving for Uy, Initial residual = 0.0091096, Final residual = 8.2199e-10, No Iterations 2
DILUPBiCG:  Solving for Uz, Initial residual = 0.012865, Final residual = 4.6511e-09, No Iterations 2
DILUPBiCG:  Solving for O2, Initial residual = 0.0024991, Final residual = 3.6499e-11, No Iterations 2
DILUPBiCG:  Solving for H2O, Initial residual = 0, Final residual = 0, No Iterations 0
DILUPBiCG:  Solving for CH4, Initial residual = 0, Final residual = 0, No Iterations 0
DILUPBiCG:  Solving for CO2, Initial residual = 0, Final residual = 0, No Iterations 0
      O2	min/ave/max  =	     0.23301	     0.23301	     0.23301
     H2O	min/ave/max  =	           0	           0	           0
     CH4	min/ave/max  =	           0	           0	           0
     CO2	min/ave/max  =	           0	           0	           0
      N2	min/ave/max  =	     0.76699	     0.76699	     0.76699
DILUPBiCG:  Solving for h, Initial residual = 0.00058168, Final residual = 5.3171e-11, No Iterations 2
min/max(T) = 298.15, 298.23
GAMG:  Solving for p_rgh, Initial residual = 0.016218, Final residual = 4.3544e-05, No Iterations 3
diagonal:  Solving for rho, Initial residual = 0, Final residual = 0, No Iterations 0
time step continuity errors : sum local = 4.1324e-08, global = -2.5456e-08, cumulative = -0.0029245
GAMG:  Solving for p_rgh, Initial residual = 0.0001083, Final residual = 3.3871e-08, No Iterations 6
diagonal:  Solving for rho, Initial residual = 0, Final residual = 0, No Iterations 0
time step continuity errors : sum local = 3.2283e-11, global = -3.0262e-11, cumulative = -0.0029245
DILUPBiCG:  Solving for k, Initial residual = 0.0070044, Final residual = 7.1149e-10, No Iterations 2
ExecutionTime = 24.25 s  ClockTime = 24 s

Courant Number mean: 0.0040992 max: 0.13947
Time = 1.9


Solving 3-D cloud reactingCloud1

--> Cloud: reactingCloud1 injector: uniformSamplingSprinklerInjection
    Added 500 new parcels

Cloud: reactingCloud1
    Current number of parcels       = 44247
    Current mass in system          = 13.276
    Linear momentum                 = (0.094556 -40.363 0.22484)
   |Linear momentum|                = 40.364
    Linear kinetic energy           = 138.72
    uniformSamplingSprinklerInjection:
        number of parcels added     = 47500
        mass introduced             = 14.432
    Parcel fate (number, mass)
      - escape                      = 3075, 0
      - stick                       = 0, 0
    Temperature min/max             = 300, 300
    Mass transfer phase change      = 0

diagonal:  Solving for rho, Initial residual = 0, Final residual = 0, No Iterations 0
PIMPLE: iteration 1
DILUPBiCG:  Solving for Ux, Initial residual = 0.012969, Final residual = 4.1634e-09, No Iterations 2
DILUPBiCG:  Solving for Uy, Initial residual = 0.0089655, Final residual = 8.6708e-10, No Iterations 2
DILUPBiCG:  Solving for Uz, Initial residual = 0.012723, Final residual = 3.9525e-09, No Iterations 2
DILUPBiCG:  Solving for O2, Initial residual = 0.0025196, Final residual = 5.5907e-10, No Iterations 2
DILUPBiCG:  Solving for H2O, Initial residual = 0, Final residual = 0, No Iterations 0
DILUPBiCG:  Solving for CH4, Initial residual = 0, Final residual = 0, No Iterations 0
DILUPBiCG:  Solving for CO2, Initial residual = 0, Final residual = 0, No Iterations 0
      O2	min/ave/max  =	     0.23301	     0.23301	     0.23301
     H2O	min/ave/max  =	           0	           0	           0
     CH4	min/ave/max  =	           0	           0	           0
     CO2	min/ave/max  =	           0	           0	           0
      N2	min/ave/max  =	     0.76699	     0.76699	     0.76699
DILUPBiCG:  Solving for h, Initial residual = 0.00057793, Final residual = 4.4572e-11, No Iterations 2
min/max(T) = 298.15, 298.23
GAMG:  Solving for p_rgh, Initial residual = 0.015782, Final residual = 0.00015057, No Iterations 2
diagonal:  Solving for rho, Initial residual = 0, Final residual = 0, No Iterations 0
time step continuity errors : sum local = 1.4444e-07, global = -7.3218e-08, cumulative = -0.0029246
GAMG:  Solving for p_rgh, Initial residual = 0.0001803, Final residual = 9.4456e-08, No Iterations 6
diagonal:  Solving for rho, Initial residual = 0, Final residual = 0, No Iterations 0
time step continuity errors : sum local = 9.1947e-11, global = -8.5208e-11, cumulative = -0.0029246
DILUPBiCG:  Solving for k, Initial residual = 0.0069806, Final residual = 6.3003e-10, No Iterations 2
ExecutionTime = 24.62 s  ClockTime = 25 s

Courant Number mean: 0.0041513 max: 0.13991
Time = 1.92


Solving 3-D cloud reactingCloud1

--> Cloud: reactingCloud1 injector: uniformSamplingSprinklerInjection
    Added 500 new parcels

Cloud: reactingCloud1
    Current number of parcels       = 44592
    Current mass in system          = 13.381
    Linear momentum                 = (0.10151 -40.604 0.21712)
   |Linear momentum|                = 40.605
    Linear kinetic energy           = 139.03
    uniformSamplingSprinklerInjection:
        number of parcels added     = 48000
        mass introduced             = 14.584
    Parcel fate (number, mass)
      - escape                      = 3230, 0
      - stick                       = 0, 0
    Temperature min/max             = 300, 300
    Mass transfer phase change      = 0

diagonal:  Solving for rho, Initial residual = 0, Final residual = 0, No Iterations 0
PIMPLE: iteration 1
DILUPBiCG:  Solving for Ux, Initial residual = 0.013063, Final residual = 6.494e-13, No Iterations 3
DILUPBiCG:  Solving for Uy, Initial residual = 0.008898, Final residual = 9.9935e-10, No Iterations 2
DILUPBiCG:  Solving for Uz, Initial residual = 0.012659, Final residual = 3.7407e-09, No Iterations 2
DILUPBiCG:  Solving for O2, Initial residual = 0.0024958, Final residual = 1.1543e-10, No Iterations 2
DILUPBiCG:  Solving for H2O, Initial residual = 0, Final residual = 0, No Iterations 0
DILUPBiCG:  Solving for CH4, Initial residual = 0, Final residual = 0, No Iterations 0
DILUPBiCG:  Solving for CO2, Initial residual = 0, Final residual = 0, No Iterations 0
      O2	min/ave/max  =	     0.23301	     0.23301	     0.23301
     H2O	min/ave/max  =	           0	           0	           0
     CH4	min/ave/max  =	           0	           0	           0
     CO2	min/ave/max  =	           0	           0	           0
      N2	min/ave/max  =	     0.76699	     0.76699	     0.76699
DILUPBiCG:  Solving for h, Initial residual = 0.00057675, Final residual = 4.802e-11, No Iterations 2
min/max(T) = 298.15, 298.23
GAMG:  Solving for p_rgh, Initial residual = 0.017144, Final residual = 0.00016002, No Iterations 2
diagonal:  Solving for rho, Initial residual = 0, Final residual = 0, No Iterations 0
time step continuity errors : sum local = 1.5533e-07, global = -4.8753e-08, cumulative = -0.0029246
GAMG:  Solving for p_rgh, Initial residual = 0.00021875, Final residual = 3.9169e-08, No Iterations 7
diagonal:  Solving for rho, Initial residual = 0, Final residual = 0, No Iterations 0
time step continuity errors : sum local = 3.9924e-11, global = -2.9213e-11, cumulative = -0.0029246
DILUPBiCG:  Solving for k, Initial residual = 0.0069303, Final residual = 5.6827e-10, No Iterations 2
ExecutionTime = 24.99 s  ClockTime = 25 s

Courant Number mean: 0.0042051 max: 0.14007
Time = 1.94


Solving 3-D cloud reactingCloud1

--> Cloud: reactingCloud1 injector: uniformSamplingSprinklerInjection
    Added 500 new parcels

Cloud: reactingCloud1
    Current number of parcels       = 44962
    Current mass in system          = 13.486
    Linear momentum                 = (0.10556 -40.817 0.28185)
   |Linear momentum|                = 40.818
    Linear kinetic energy           = 139.01
    uniformSamplingSprinklerInjection:
        number of parcels added     = 48500
        mass introduced             = 14.736
    Parcel fate (number, mass)
      - escape                      = 3360, 0
      - stick                       = 0, 0
    Temperature min/max             = 300, 300
    Mass transfer phase change      = 0

diagonal:  Solving for rho, Initial residual = 0, Final residual = 0, No Iterations 0
PIMPLE: iteration 1
DILUPBiCG:  Solving for Ux, Initial residual = 0.012878, Final residual = 5.607e-09, No Iterations 2
DILUPBiCG:  Solving for Uy, Initial residual = 0.0087323, Final residual = 9.8552e-10, No Iterations 2
DILUPBiCG:  Solving for Uz, Initial residual = 0.012577, Final residual = 4.2821e-09, No Iterations 2
DILUPBiCG:  Solving for O2, Initial residual = 0.0024843, Final residual = 2.5047e-11, No Iterations 2
DILUPBiCG:  Solving for H2O, Initial residual = 0, Final residual = 0, No Iterations 0
DILUPBiCG:  Solving for CH4, Initial residual = 0, Final residual = 0, No Iterations 0
DILUPBiCG:  Solving for CO2, Initial residual = 0, Final residual = 0, No Iterations 0
      O2	min/ave/max  =	     0.23301	     0.23301	     0.23301
     H2O	min/ave/max  =	           0	           0	           0
     CH4	min/ave/max  =	           0	           0	           0
     CO2	min/ave/max  =	           0	           0	           0
      N2	min/ave/max  =	     0.76699	     0.76699	     0.76699
DILUPBiCG:  Solving for h, Initial residual = 0.00059553, Final residual = 4.7616e-11, No Iterations 2
min/max(T) = 298.15, 298.23
GAMG:  Solving for p_rgh, Initial residual = 0.016624, Final residual = 0.00014326, No Iterations 2
diagonal:  Solving for rho, Initial residual = 0, Final residual = 0, No Iterations 0
time step continuity errors : sum local = 1.4063e-07, global = -7.936e-08, cumulative = -0.0029247
GAMG:  Solving for p_rgh, Initial residual = 0.00018935, Final residual = 9.2935e-08, No Iterations 6
diagonal:  Solving for rho, Initial residual = 0, Final residual = 0, No Iterations 0
time step continuity errors : sum local = 9.3208e-11, global = -8.7814e-11, cumulative = -0.0029247
DILUPBiCG:  Solving for k, Initial residual = 0.0068585, Final residual = 5.3323e-10, No Iterations 2
ExecutionTime = 25.37 s  ClockTime = 25 s

Courant Number mean: 0.0042579 max: 0.13995
Time = 1.96


Solving 3-D cloud reactingCloud1

--> Cloud: reactingCloud1 injector: uniformSamplingSprinklerInjection
    Added 500 new parcels

Cloud: reactingCloud1
    Current number of parcels       = 45308
    Current mass in system          = 13.591
    Linear momentum                 = (0.15451 -41.151 0.24633)
   |Linear momentum|                = 41.152
    Linear kinetic energy           = 140.18
    uniformSamplingSprinklerInjection:
        number of parcels added     = 49000
        mass introduced             = 14.888
    Parcel fate (number, mass)
      - escape                      = 3514, 0
      - stick                       = 0, 0
    Temperature min/max             = 300, 300
    Mass transfer phase change      = 0

diagonal:  Solving for rho, Initial residual = 0, Final residual = 0, No Iterations 0
PIMPLE: iteration 1
DILUPBiCG:  Solving for Ux, Initial residual = 0.012976, Final residual = 1.9673e-09, No Iterations 2
DILUPBiCG:  Solving for Uy, Initial residual = 0.008652, Final residual = 9.9069e-10, No Iterations 2
DILUPBiCG:  Solving for Uz, Initial residual = 0.012543, Final residual = 3.1226e-09, No Iterations 2
DILUPBiCG:  Solving for O2, Initial residual = 0.0025002, Final residual = 4.0163e-11, No Iterations 2
DILUPBiCG:  Solving for H2O, Initial residual = 0, Final residual = 0, No Iterations 0
DILUPBiCG:  Solving for CH4, Initial residual = 0, Final residual = 0, No Iterations 0
DILUPBiCG:  Solving for CO2, Initial residual = 0, Final residual = 0, No Iterations 0
      O2	min/ave/max  =	     0.23301	     0.23301	     0.23301
     H2O	min/ave/max  =	           0	           0	           0
     CH4	min/ave/max  =	           0	           0	           0
     CO2	min/ave/max  =	           0	           0	           0
      N2	min/ave/max  =	     0.76699	     0.76699	     0.76699
DILUPBiCG:  Solving for h, Initial residual = 0.00059389, Final residual = 4.4131e-11, No Iterations 2
min/max(T) = 298.15, 298.23
GAMG:  Solving for p_rgh, Initial residual = 0.016604, Final residual = 0.00014844, No Iterations 2
diagonal:  Solving for rho, Initial residual = 0, Final residual = 0, No Iterations 0
time step continuity errors : sum local = 1.4732e-07, global = -5.8804e-08, cumulative = -0.0029247
GAMG:  Solving for p_rgh, Initial residual = 0.00019918, Final residual = 3.8529e-08, No Iterations 7
diagonal:  Solving for rho, Initial residual = 0, Final residual = 0, No Iterations 0
time step continuity errors : sum local = 3.952e-11, global = -3.077e-11, cumulative = -0.0029247
DILUPBiCG:  Solving for k, Initial residual = 0.006795, Final residual = 5.1619e-10, No Iterations 2
ExecutionTime = 25.74 s  ClockTime = 26 s

Courant Number mean: 0.0043105 max: 0.13957
Time = 1.98


Solving 3-D cloud reactingCloud1

--> Cloud: reactingCloud1 injector: uniformSamplingSprinklerInjection
    Added 500 new parcels

Cloud: reactingCloud1
    Current number of parcels       = 45650
    Current mass in system          = 13.689
    Linear momentum                 = (0.12774 -41.416 0.29345)
   |Linear momentum|                = 41.417
    Linear kinetic energy           = 141
    uniformSamplingSprinklerInjection:
        number of parcels added     = 49500
        mass introduced             = 15.04
    Parcel fate (number, mass)
      - escape                      = 3672, 0
      - stick                       = 0, 0
    Temperature min/max             = 300, 300
    Mass transfer phase change      = 0

diagonal:  Solving for rho, Initial residual = 0, Final residual = 0, No Iterations 0
PIMPLE: iteration 1
DILUPBiCG:  Solving for Ux, Initial residual = 0.012878, Final residual = 2.031e-09, No Iterations 2
DILUPBiCG:  Solving for Uy, Initial residual = 0.0085873, Final residual = 9.8878e-10, No Iterations 2
DILUPBiCG:  Solving for Uz, Initial residual = 0.012484, Final residual = 2.6776e-09, No Iterations 2
DILUPBiCG:  Solving for O2, Initial residual = 0.0025268, Final residual = 2.9868e-11, No Iterations 2
DILUPBiCG:  Solving for H2O, Initial residual = 0, Final residual = 0, No Iterations 0
DILUPBiCG:  Solving for CH4, Initial residual = 0, Final residual = 0, No Iterations 0
DILUPBiCG:  Solving for CO2, Initial residual = 0, Final residual = 0, No Iterations 0
      O2	min/ave/max  =	     0.23301	     0.23301	     0.23301
     H2O	min/ave/max  =	           0	           0	           0
     CH4	min/ave/max  =	           0	           0	           0
     CO2	min/ave/max  =	           0	           0	           0
      N2	min/ave/max  =	     0.76699	     0.76699	     0.76699
DILUPBiCG:  Solving for h, Initial residual = 0.00060344, Final residual = 4.9622e-11, No Iterations 2
min/max(T) = 298.15, 298.23
GAMG:  Solving for p_rgh, Initial residual = 0.016228, Final residual = 0.00014455, No Iterations 2
diagonal:  Solving for rho, Initial residual = 0, Final residual = 0, No Iterations 0
time step continuity errors : sum local = 1.4488e-07, global = -8.4992e-08, cumulative = -0.0029248
GAMG:  Solving for p_rgh, Initial residual = 0.00019177, Final residual = 8.8189e-08, No Iterations 6
diagonal:  Solving for rho, Initial residual = 0, Final residual = 0, No Iterations 0
time step continuity errors : sum local = 9.0457e-11, global = -8.6378e-11, cumulative = -0.0029248
DILUPBiCG:  Solving for k, Initial residual = 0.0067856, Final residual = 5.185e-10, No Iterations 2
ExecutionTime = 26.12 s  ClockTime = 26 s

Courant Number mean: 0.0043631 max: 0.13987
Time = 2


Solving 3-D cloud reactingCloud1

--> Cloud: reactingCloud1 injector: uniformSamplingSprinklerInjection
    Added 500 new parcels

Cloud: reactingCloud1
    Current number of parcels       = 45995
    Current mass in system          = 13.791
    Linear momentum                 = (0.096887 -41.662 0.22814)
   |Linear momentum|                = 41.663
    Linear kinetic energy           = 141.24
    uniformSamplingSprinklerInjection:
        number of parcels added     = 50000
        mass introduced             = 15.192
    Parcel fate (number, mass)
      - escape                      = 3827, 0
      - stick                       = 0, 0
    Temperature min/max             = 300, 300
    Mass transfer phase change      = 0

facePostProcessing output:
    sampleFaces1: total mass = 12.607; average mass flow rate = 8.0556
    sampleFaces2: total mass = 1.6209; average mass flow rate = 1.5176

particleCollectorFmg output:
    sum(total mass) = 5.1634
    sum(average mass flow rate) = 5.1634

diagonal:  Solving for rho, Initial residual = 0, Final residual = 0, No Iterations 0
PIMPLE: iteration 1
DILUPBiCG:  Solving for Ux, Initial residual = 0.012793, Final residual = 3.2419e-09, No Iterations 2
DILUPBiCG:  Solving for Uy, Initial residual = 0.0084484, Final residual = 9.8449e-10, No Iterations 2
DILUPBiCG:  Solving for Uz, Initial residual = 0.012268, Final residual = 3.5133e-09, No Iterations 2
DILUPBiCG:  Solving for O2, Initial residual = 0.0025045, Final residual = 2.233e-11, No Iterations 2
DILUPBiCG:  Solving for H2O, Initial residual = 0, Final residual = 0, No Iterations 0
DILUPBiCG:  Solving for CH4, Initial residual = 0, Final residual = 0, No Iterations 0
DILUPBiCG:  Solving for CO2, Initial residual = 0, Final residual = 0, No Iterations 0
      O2	min/ave/max  =	     0.23301	     0.23301	     0.23301
     H2O	min/ave/max  =	           0	           0	           0
     CH4	min/ave/max  =	           0	           0	           0
     CO2	min/ave/max  =	           0	           0	           0
      N2	min/ave/max  =	     0.76699	     0.76699	     0.76699
DILUPBiCG:  Solving for h, Initial residual = 0.00060829, Final residual = 4.9831e-11, No Iterations 2
min/max(T) = 298.15, 298.23
GAMG:  Solving for p_rgh, Initial residual = 0.016641, Final residual = 0.00014397, No Iterations 2
diagonal:  Solving for rho, Initial residual = 0, Final residual = 0, No Iterations 0
time step continuity errors : sum local = 1.459e-07, global = -6.3469e-08, cumulative = -0.0029249
GAMG:  Solving for p_rgh, Initial residual = 0.00019541, Final residual = 3.4588e-08, No Iterations 7
diagonal:  Solving for rho, Initial residual = 0, Final residual = 0, No Iterations 0
time step continuity errors : sum local = 3.7299e-11, global = -3.2757e-11, cumulative = -0.0029249
DILUPBiCG:  Solving for k, Initial residual = 0.0067774, Final residual = 5.1694e-10, No Iterations 2
ExecutionTime = 27.01 s  ClockTime = 27 s +

fieldAverage fieldAverage1:
    Reading/initialising field UMean

fieldAverage fieldAverage1 output:
    Calculating averages

    Writing average fields

End
